feeders/Battery 13 Node Distributed/main.glm
//Input feeder information for IEEE 13 node with different cases.
//Started on 10/21/09. This version created 20-Oct-2010 09:29:29.

clock {
     timezone PST+8PDT;
     starttime '2000-08-01 00:00:00';
     stoptime '2000-08-02 00:00:00';
}

#set minimum_timestep=60;
#set profiler=1;
#set relax_naming_rules=1;

module tape;
module climate;
module residential {
     implicit_enduses NONE;
};
module generators;
module powerflow {
     solver_method FBS;
     NR_iteration_limit 50;
};

object climate {
     name Climate;
     tmyfile "climate.tmy2";
     interpolate QUADRATIC;
};

// Schedules

schedule LIGHTS {
  // weekday-summer
  *  0 * 4-9 1-5 0.380; *  1 * 4-9 1-5 0.340; *  2 * 4-9 1-5 0.320; *  3 * 4-9 1-5 0.320;
  *  4 * 4-9 1-5 0.320; *  5 * 4-9 1-5 0.350; *  6 * 4-9 1-5 0.410; *  7 * 4-9 1-5 0.450;
  *  8 * 4-9 1-5 0.450; *  9 * 4-9 1-5 0.450; * 10 * 4-9 1-5 0.450; * 11 * 4-9 1-5 0.450;
  * 12 * 4-9 1-5 0.450; * 13 * 4-9 1-5 0.440; * 14 * 4-9 1-5 0.440; * 15 * 4-9 1-5 0.450;
  * 16 * 4-9 1-5 0.470; * 17 * 4-9 1-5 0.510; * 18 * 4-9 1-5 0.540; * 19 * 4-9 1-5 0.560;
  * 20 * 4-9 1-5 0.630; * 21 * 4-9 1-5 0.710; * 22 * 4-9 1-5 0.650; * 23 * 4-9 1-5 0.490
  // weekend-summer
  *  0 * 4-9 6-0 0.410; *  1 * 4-9 6-0 0.360; *  2 * 4-9 6-0 0.330; *  3 * 4-9 6-0 0.320;
  *  4 * 4-9 6-0 0.320; *  5 * 4-9 6-0 0.320; *  6 * 4-9 6-0 0.340; *  7 * 4-9 6-0 0.390;
  *  8 * 4-9 6-0 0.440; *  9 * 4-9 6-0 0.470; * 10 * 4-9 6-0 0.470; * 11 * 4-9 6-0 0.470;
  * 12 * 4-9 6-0 0.470; * 13 * 4-9 6-0 0.460; * 14 * 4-9 6-0 0.460; * 15 * 4-9 6-0 0.460;
  * 16 * 4-9 6-0 0.470; * 17 * 4-9 6-0 0.490; * 18 * 4-9 6-0 0.520; * 19 * 4-9 6-0 0.540;
  * 20 * 4-9 6-0 0.610; * 21 * 4-9 6-0 0.680; * 22 * 4-9 6-0 0.630; * 23 * 4-9 6-0 0.500
  // weekday-winter
  *  0 * 10-3 1-5 0.4200; *  1 * 10-3 1-5 0.3800; *  2 * 10-3 1-5 0.3700; *  3 * 10-3 1-5 0.3600;
  *  4 * 10-3 1-5 0.3700; *  5 * 10-3 1-5 0.4200; *  6 * 10-3 1-5 0.5800; *  7 * 10-3 1-5 0.6900;
  *  8 * 10-3 1-5 0.6100; *  9 * 10-3 1-5 0.5600; * 10 * 10-3 1-5 0.5300; * 11 * 10-3 1-5 0.5100;
  * 12 * 10-3 1-5 0.4900; * 13 * 10-3 1-5 0.4700; * 14 * 10-3 1-5 0.4700; * 15 * 10-3 1-5 0.5100;
  * 16 * 10-3 1-5 0.6300; * 17 * 10-3 1-5 0.8400; * 18 * 10-3 1-5 0.9700; * 19 * 10-3 1-5 0.9800;
  * 20 * 10-3 1-5 0.9600; * 21 * 10-3 1-5 0.8900; * 22 * 10-3 1-5 0.7400; * 23 * 10-3 1-5 0.5500
  // weekend-winter
  *  0 * 10-3 6-0 0.4900; *  1 * 10-3 6-0 0.4200; *  2 * 10-3 6-0 0.3800; *  3 * 10-3 6-0 0.3800;
  *  4 * 10-3 6-0 0.3700; *  5 * 10-3 6-0 0.3800; *  6 * 10-3 6-0 0.4300; *  7 * 10-3 6-0 0.5100;
  *  8 * 10-3 6-0 0.6000; *  9 * 10-3 6-0 0.6300; * 10 * 10-3 6-0 0.6300; * 11 * 10-3 6-0 0.6100;
  * 12 * 10-3 6-0 0.6000; * 13 * 10-3 6-0 0.5900; * 14 * 10-3 6-0 0.5900; * 15 * 10-3 6-0 0.6100;
  * 16 * 10-3 6-0 0.7100; * 17 * 10-3 6-0 0.8800; * 18 * 10-3 6-0 0.9600; * 19 * 10-3 6-0 0.9700;
  * 20 * 10-3 6-0 0.9400; * 21 * 10-3 6-0 0.8800; * 22 * 10-3 6-0 0.7600; * 23 * 10-3 6-0 0.5800
};

schedule water1 {
  0-9 0 * * * 0.00;
  10-19 0 * * * 0.00;
  20-29 0 * * * 0.00;
  30-39 0 * * * 0.00;
  40-49 0 * * * 0.00;
  50-59 0 * * * 0.00;
  0-9 1 * * * 0.00;
  10-19 1 * * * 0.00;
  20-29 1 * * * 0.00;
  30-39 1 * * * 0.00;
  40-49 1 * * * 0.00;
  50-59 1 * * * 0.00;
  0-9 2 * * * 0.00;
  10-19 2 * * * 0.00;
  20-29 2 * * * 0.00;
  30-39 2 * * * 0.39;
  40-49 2 * * * 0.00;
  50-59 2 * * * 0.01;
  0-9 3 * * * 0.00;
  10-19 3 * * * 0.00;
  20-29 3 * * * 0.00;
  30-39 3 * * * 0.00;
  40-49 3 * * * 0.00;
  50-59 3 * * * 0.32;
  0-9 4 * * * 0.00;
  10-19 4 * * * 0.00;
  20-29 4 * * * 0.00;
  30-39 4 * * * 0.13;
  40-49 4 * * * 0.00;
  50-59 4 * * * 0.09;
  0-9 5 * * * 0.23;
  10-19 5 * * * 0.00;
  20-29 5 * * * 0.00;
  30-39 5 * * * 0.00;
  40-49 5 * * * 0.00;
  50-59 5 * * * 0.48;
  0-9 6 * * * 0.88;
  10-19 6 * * * 0.00;
  20-29 6 * * * 0.00;
  30-39 6 * * * 0.00;
  40-49 6 * * * 0.00;
  50-59 6 * * * 0.00;
  0-9 7 * * * 0.00;
  10-19 7 * * * 0.00;
  20-29 7 * * * 0.00;
  30-39 7 * * * 0.00;
  40-49 7 * * * 0.00;
  50-59 7 * * * 0.00;
  0-9 8 * * * 0.00;
  10-19 8 * * * 0.00;
  20-29 8 * * * 0.00;
  30-39 8 * * * 0.61;
  40-49 8 * * * 0.00;
  50-59 8 * * * 0.00;
  0-9 9 * * * 0.00;
  10-19 9 * * * 0.00;
  20-29 9 * * * 0.00;
  30-39 9 * * * 0.00;
  40-49 9 * * * 0.00;
  50-59 9 * * * 0.00;
  0-9 10 * * * 0.00;
  10-19 10 * * * 0.00;
  20-29 10 * * * 0.00;
  30-39 10 * * * 0.00;
  40-49 10 * * * 0.00;
  50-59 10 * * * 0.00;
  0-9 11 * * * 0.00;
  10-19 11 * * * 0.00;
  20-29 11 * * * 0.00;
  30-39 11 * * * 0.00;
  40-49 11 * * * 0.00;
  50-59 11 * * * 0.00;
  0-9 12 * * * 0.00;
  10-19 12 * * * 0.00;
  20-29 12 * * * 0.00;
  30-39 12 * * * 0.00;
  40-49 12 * * * 0.00;
  50-59 12 * * * 0.00;
  0-9 13 * * * 0.00;
  10-19 13 * * * 0.00;
  20-29 13 * * * 0.00;
  30-39 13 * * * 0.00;
  40-49 13 * * * 0.00;
  50-59 13 * * * 0.41;
  0-9 14 * * * 0.00;
  10-19 14 * * * 0.12;
  20-29 14 * * * 0.00;
  30-39 14 * * * 0.92;
  40-49 14 * * * 0.30;
  50-59 14 * * * 0.00;
  0-9 15 * * * 0.78;
  10-19 15 * * * 0.00;
  20-29 15 * * * 0.00;
  30-39 15 * * * 0.00;
  40-49 15 * * * 0.00;
  50-59 15 * * * 0.00;
  0-9 16 * * * 0.00;
  10-19 16 * * * 0.00;
  20-29 16 * * * 0.00;
  30-39 16 * * * 0.00;
  40-49 16 * * * 0.00;
  50-59 16 * * * 0.25;
  0-9 17 * * * 0.00;
  10-19 17 * * * 0.00;
  20-29 17 * * * 0.00;
  30-39 17 * * * 0.00;
  40-49 17 * * * 0.00;
  50-59 17 * * * 0.00;
  0-9 18 * * * 0.00;
  10-19 18 * * * 0.16;
  20-29 18 * * * 0.00;
  30-39 18 * * * 0.00;
  40-49 18 * * * 0.00;
  50-59 18 * * * 0.00;
  0-9 19 * * * 0.00;
  10-19 19 * * * 0.00;
  20-29 19 * * * 0.00;
  30-39 19 * * * 0.00;
  40-49 19 * * * 0.00;
  50-59 19 * * * 0.00;
  0-9 20 * * * 0.00;
  10-19 20 * * * 0.00;
  20-29 20 * * * 0.00;
  30-39 20 * * * 0.00;
  40-49 20 * * * 0.00;
  50-59 20 * * * 0.00;
  0-9 21 * * * 0.00;
  10-19 21 * * * 0.00;
  20-29 21 * * * 0.00;
  30-39 21 * * * 0.00;
  40-49 21 * * * 0.00;
  50-59 21 * * * 0.00;
  0-9 22 * * * 0.00;
  10-19 22 * * * 0.00;
  20-29 22 * * * 0.00;
  30-39 22 * * * 0.00;
  40-49 22 * * * 0.00;
  50-59 22 * * * 0.00;
  0-9 23 * * * 0.00;
  10-19 23 * * * 0.00;
  20-29 23 * * * 0.00;
  30-39 23 * * * 0.00;
  40-49 23 * * * 0.00;
  50-59 23 * * * 0.00;
}

schedule water2 {
  0-9 0 * * * 0.00;
  10-19 0 * * * 0.00;
  20-29 0 * * * 0.00;
  30-39 0 * * * 0.00;
  40-49 0 * * * 0.00;
  50-59 0 * * * 0.00;
  0-9 1 * * * 0.00;
  10-19 1 * * * 0.00;
  20-29 1 * * * 0.00;
  30-39 1 * * * 0.00;
  40-49 1 * * * 0.00;
  50-59 1 * * * 0.00;
  0-9 2 * * * 0.00;
  10-19 2 * * * 0.00;
  20-29 2 * * * 0.00;
  30-39 2 * * * 0.00;
  40-49 2 * * * 0.00;
  50-59 2 * * * 0.00;
  0-9 3 * * * 0.14;
  10-19 3 * * * 0.00;
  20-29 3 * * * 0.00;
  30-39 3 * * * 0.97;
  40-49 3 * * * 0.00;
  50-59 3 * * * 0.00;
  0-9 4 * * * 0.00;
  10-19 4 * * * 0.00;
  20-29 4 * * * 0.00;
  30-39 4 * * * 0.00;
  40-49 4 * * * 0.00;
  50-59 4 * * * 0.00;
  0-9 5 * * * 0.00;
  10-19 5 * * * 0.00;
  20-29 5 * * * 0.00;
  30-39 5 * * * 0.00;
  40-49 5 * * * 0.00;
  50-59 5 * * * 0.00;
  0-9 6 * * * 0.00;
  10-19 6 * * * 0.00;
  20-29 6 * * * 0.00;
  30-39 6 * * * 0.47;
  40-49 6 * * * 0.00;
  50-59 6 * * * 0.00;
  0-9 7 * * * 0.00;
  10-19 7 * * * 0.00;
  20-29 7 * * * 0.00;
  30-39 7 * * * 0.00;
  40-49 7 * * * 0.00;
  50-59 7 * * * 0.00;
  0-9 8 * * * 0.00;
  10-19 8 * * * 0.00;
  20-29 8 * * * 0.00;
  30-39 8 * * * 0.00;
  40-49 8 * * * 0.00;
  50-59 8 * * * 1.14;
  0-9 9 * * * 0.00;
  10-19 9 * * * 0.00;
  20-29 9 * * * 0.00;
  30-39 9 * * * 0.00;
  40-49 9 * * * 0.00;
  50-59 9 * * * 0.00;
  0-9 10 * * * 0.00;
  10-19 10 * * * 0.00;
  20-29 10 * * * 0.00;
  30-39 10 * * * 0.00;
  40-49 10 * * * 0.00;
  50-59 10 * * * 0.00;
  0-9 11 * * * 0.00;
  10-19 11 * * * 0.00;
  20-29 11 * * * 0.00;
  30-39 11 * * * 0.00;
  40-49 11 * * * 0.00;
  50-59 11 * * * 0.00;
  0-9 12 * * * 0.00;
  10-19 12 * * * 0.00;
  20-29 12 * * * 0.00;
  30-39 12 * * * 0.00;
  40-49 12 * * * 0.00;
  50-59 12 * * * 0.00;
  0-9 13 * * * 0.00;
  10-19 13 * * * 0.00;
  20-29 13 * * * 0.00;
  30-39 13 * * * 0.00;
  40-49 13 * * * 0.00;
  50-59 13 * * * 0.00;
  0-9 14 * * * 0.00;
  10-19 14 * * * 0.00;
  20-29 14 * * * 0.00;
  30-39 14 * * * 0.00;
  40-49 14 * * * 0.00;
  50-59 14 * * * 0.00;
  0-9 15 * * * 0.00;
  10-19 15 * * * 0.00;
  20-29 15 * * * 0.00;
  30-39 15 * * * 0.00;
  40-49 15 * * * 0.00;
  50-59 15 * * * 0.60;
  0-9 16 * * * 0.00;
  10-19 16 * * * 0.00;
  20-29 16 * * * 0.00;
  30-39 16 * * * 0.00;
  40-49 16 * * * 0.00;
  50-59 16 * * * 0.00;
  0-9 17 * * * 0.00;
  10-19 17 * * * 0.00;
  20-29 17 * * * 0.00;
  30-39 17 * * * 0.00;
  40-49 17 * * * 0.00;
  50-59 17 * * * 0.00;
  0-9 18 * * * 0.00;
  10-19 18 * * * 0.12;
  20-29 18 * * * 0.00;
  30-39 18 * * * 0.00;
  40-49 18 * * * 0.00;
  50-59 18 * * * 0.00;
  0-9 19 * * * 0.70;
  10-19 19 * * * 0.00;
  20-29 19 * * * 0.00;
  30-39 19 * * * 0.00;
  40-49 19 * * * 0.00;
  50-59 19 * * * 0.00;
  0-9 20 * * * 0.00;
  10-19 20 * * * 0.00;
  20-29 20 * * * 0.00;
  30-39 20 * * * 0.00;
  40-49 20 * * * 0.00;
  50-59 20 * * * 0.00;
  0-9 21 * * * 0.00;
  10-19 21 * * * 0.00;
  20-29 21 * * * 0.00;
  30-39 21 * * * 0.00;
  40-49 21 * * * 0.00;
  50-59 21 * * * 0.00;
  0-9 22 * * * 0.00;
  10-19 22 * * * 0.00;
  20-29 22 * * * 0.00;
  30-39 22 * * * 0.00;
  40-49 22 * * * 0.00;
  50-59 22 * * * 0.00;
  0-9 23 * * * 0.00;
  10-19 23 * * * 0.00;
  20-29 23 * * * 0.00;
  30-39 23 * * * 0.00;
  40-49 23 * * * 0.00;
  50-59 23 * * * 0.00;
}

schedule water3 {
  0-9 0 * * * 0.00;
  10-19 0 * * * 0.00;
  20-29 0 * * * 0.00;
  30-39 0 * * * 0.00;
  40-49 0 * * * 0.00;
  50-59 0 * * * 0.00;
  0-9 1 * * * 0.00;
  10-19 1 * * * 0.00;
  20-29 1 * * * 0.00;
  30-39 1 * * * 0.00;
  40-49 1 * * * 0.00;
  50-59 1 * * * 0.00;
  0-9 2 * * * 0.00;
  10-19 2 * * * 0.00;
  20-29 2 * * * 0.00;
  30-39 2 * * * 0.00;
  40-49 2 * * * 0.00;
  50-59 2 * * * 0.50;
  0-9 3 * * * 0.00;
  10-19 3 * * * 0.00;
  20-29 3 * * * 0.00;
  30-39 3 * * * 0.00;
  40-49 3 * * * 0.00;
  50-59 3 * * * 0.00;
  0-9 4 * * * 0.35;
  10-19 4 * * * 0.00;
  20-29 4 * * * 0.00;
  30-39 4 * * * 0.00;
  40-49 4 * * * 0.24;
  50-59 4 * * * 0.00;
  0-9 5 * * * 0.00;
  10-19 5 * * * 0.00;
  20-29 5 * * * 0.00;
  30-39 5 * * * 0.00;
  40-49 5 * * * 0.00;
  50-59 5 * * * 0.06;
  0-9 6 * * * 0.18;
  10-19 6 * * * 1.07;
  20-29 6 * * * 0.00;
  30-39 6 * * * 0.00;
  40-49 6 * * * 0.00;
  50-59 6 * * * 0.00;
  0-9 7 * * * 0.00;
  10-19 7 * * * 0.00;
  20-29 7 * * * 0.00;
  30-39 7 * * * 0.00;
  40-49 7 * * * 0.00;
  50-59 7 * * * 0.00;
  0-9 8 * * * 0.25;
  10-19 8 * * * 0.00;
  20-29 8 * * * 0.00;
  30-39 8 * * * 0.00;
  40-49 8 * * * 0.00;
  50-59 8 * * * 0.00;
  0-9 9 * * * 0.00;
  10-19 9 * * * 0.00;
  20-29 9 * * * 0.00;
  30-39 9 * * * 0.00;
  40-49 9 * * * 0.69;
  50-59 9 * * * 0.00;
  0-9 10 * * * 0.00;
  10-19 10 * * * 0.00;
  20-29 10 * * * 0.00;
  30-39 10 * * * 0.00;
  40-49 10 * * * 0.00;
  50-59 10 * * * 0.00;
  0-9 11 * * * 0.00;
  10-19 11 * * * 0.00;
  20-29 11 * * * 0.00;
  30-39 11 * * * 0.00;
  40-49 11 * * * 0.00;
  50-59 11 * * * 0.00;
  0-9 12 * * * 0.00;
  10-19 12 * * * 0.00;
  20-29 12 * * * 0.00;
  30-39 12 * * * 0.00;
  40-49 12 * * * 0.00;
  50-59 12 * * * 0.00;
  0-9 13 * * * 0.00;
  10-19 13 * * * 0.00;
  20-29 13 * * * 0.00;
  30-39 13 * * * 0.00;
  40-49 13 * * * 0.00;
  50-59 13 * * * 0.61;
  0-9 14 * * * 0.00;
  10-19 14 * * * 0.72;
  20-29 14 * * * 0.00;
  30-39 14 * * * 0.00;
  40-49 14 * * * 0.00;
  50-59 14 * * * 0.00;
  0-9 15 * * * 0.00;
  10-19 15 * * * 0.00;
  20-29 15 * * * 0.76;
  30-39 15 * * * 0.00;
  40-49 15 * * * 0.00;
  50-59 15 * * * 0.00;
  0-9 16 * * * 0.00;
  10-19 16 * * * 0.00;
  20-29 16 * * * 0.00;
  30-39 16 * * * 0.00;
  40-49 16 * * * 0.00;
  50-59 16 * * * 0.00;
  0-9 17 * * * 0.00;
  10-19 17 * * * 0.00;
  20-29 17 * * * 0.00;
  30-39 17 * * * 0.00;
  40-49 17 * * * 0.00;
  50-59 17 * * * 0.50;
  0-9 18 * * * 0.00;
  10-19 18 * * * 0.00;
  20-29 18 * * * 0.00;
  30-39 18 * * * 0.00;
  40-49 18 * * * 0.00;
  50-59 18 * * * 0.00;
  0-9 19 * * * 0.00;
  10-19 19 * * * 0.00;
  20-29 19 * * * 0.00;
  30-39 19 * * * 0.55;
  40-49 19 * * * 0.00;
  50-59 19 * * * 0.00;
  0-9 20 * * * 0.00;
  10-19 20 * * * 0.00;
  20-29 20 * * * 0.00;
  30-39 20 * * * 0.00;
  40-49 20 * * * 0.00;
  50-59 20 * * * 0.00;
  0-9 21 * * * 0.00;
  10-19 21 * * * 0.00;
  20-29 21 * * * 0.00;
  30-39 21 * * * 0.00;
  40-49 21 * * * 0.00;
  50-59 21 * * * 0.00;
  0-9 22 * * * 0.00;
  10-19 22 * * * 0.00;
  20-29 22 * * * 0.00;
  30-39 22 * * * 0.00;
  40-49 22 * * * 0.00;
  50-59 22 * * * 0.00;
  0-9 23 * * * 0.00;
  10-19 23 * * * 0.00;
  20-29 23 * * * 0.00;
  30-39 23 * * * 0.00;
  40-49 23 * * * 0.00;
  50-59 23 * * * 0.00;
}

schedule water4 {
  0-9 0 * * * 0.00;
  10-19 0 * * * 0.00;
  20-29 0 * * * 0.00;
  30-39 0 * * * 0.00;
  40-49 0 * * * 0.00;
  50-59 0 * * * 0.00;
  0-9 1 * * * 0.00;
  10-19 1 * * * 0.00;
  20-29 1 * * * 0.00;
  30-39 1 * * * 0.00;
  40-49 1 * * * 0.00;
  50-59 1 * * * 0.00;
  0-9 2 * * * 0.00;
  10-19 2 * * * 0.00;
  20-29 2 * * * 0.00;
  30-39 2 * * * 0.00;
  40-49 2 * * * 0.47;
  50-59 2 * * * 0.00;
  0-9 3 * * * 0.00;
  10-19 3 * * * 0.00;
  20-29 3 * * * 0.00;
  30-39 3 * * * 0.00;
  40-49 3 * * * 0.00;
  50-59 3 * * * 0.00;
  0-9 4 * * * 0.00;
  10-19 4 * * * 0.00;
  20-29 4 * * * 0.00;
  30-39 4 * * * 0.00;
  40-49 4 * * * 0.00;
  50-59 4 * * * 0.00;
  0-9 5 * * * 0.00;
  10-19 5 * * * 0.00;
  20-29 5 * * * 0.00;
  30-39 5 * * * 0.00;
  40-49 5 * * * 0.00;
  50-59 5 * * * 0.07;
  0-9 6 * * * 1.13;
  10-19 6 * * * 0.00;
  20-29 6 * * * 0.00;
  30-39 6 * * * 0.00;
  40-49 6 * * * 0.00;
  50-59 6 * * * 0.00;
  0-9 7 * * * 0.00;
  10-19 7 * * * 0.00;
  20-29 7 * * * 0.00;
  30-39 7 * * * 0.00;
  40-49 7 * * * 0.00;
  50-59 7 * * * 0.00;
  0-9 8 * * * 0.00;
  10-19 8 * * * 0.00;
  20-29 8 * * * 0.00;
  30-39 8 * * * 0.00;
  40-49 8 * * * 0.00;
  50-59 8 * * * 0.00;
  0-9 9 * * * 0.00;
  10-19 9 * * * 0.00;
  20-29 9 * * * 0.00;
  30-39 9 * * * 0.00;
  40-49 9 * * * 0.00;
  50-59 9 * * * 0.00;
  0-9 10 * * * 0.00;
  10-19 10 * * * 0.00;
  20-29 10 * * * 0.00;
  30-39 10 * * * 0.00;
  40-49 10 * * * 0.00;
  50-59 10 * * * 0.00;
  0-9 11 * * * 0.00;
  10-19 11 * * * 0.00;
  20-29 11 * * * 0.00;
  30-39 11 * * * 0.00;
  40-49 11 * * * 0.00;
  50-59 11 * * * 0.00;
  0-9 12 * * * 0.00;
  10-19 12 * * * 0.00;
  20-29 12 * * * 0.00;
  30-39 12 * * * 0.00;
  40-49 12 * * * 0.00;
  50-59 12 * * * 0.00;
  0-9 13 * * * 0.00;
  10-19 13 * * * 0.00;
  20-29 13 * * * 0.00;
  30-39 13 * * * 0.00;
  40-49 13 * * * 0.00;
  50-59 13 * * * 0.00;
  0-9 14 * * * 0.00;
  10-19 14 * * * 0.00;
  20-29 14 * * * 0.00;
  30-39 14 * * * 0.00;
  40-49 14 * * * 0.00;
  50-59 14 * * * 0.00;
  0-9 15 * * * 0.00;
  10-19 15 * * * 0.00;
  20-29 15 * * * 0.00;
  30-39 15 * * * 0.00;
  40-49 15 * * * 0.00;
  50-59 15 * * * 0.00;
  0-9 16 * * * 0.00;
  10-19 16 * * * 0.70;
  20-29 16 * * * 0.00;
  30-39 16 * * * 0.00;
  40-49 16 * * * 0.00;
  50-59 16 * * * 0.00;
  0-9 17 * * * 0.00;
  10-19 17 * * * 0.00;
  20-29 17 * * * 0.00;
  30-39 17 * * * 0.00;
  40-49 17 * * * 0.00;
  50-59 17 * * * 0.00;
  0-9 18 * * * 0.00;
  10-19 18 * * * 0.00;
  20-29 18 * * * 0.00;
  30-39 18 * * * 0.00;
  40-49 18 * * * 0.00;
  50-59 18 * * * 0.00;
  0-9 19 * * * 0.00;
  10-19 19 * * * 0.00;
  20-29 19 * * * 0.00;
  30-39 19 * * * 0.00;
  40-49 19 * * * 0.00;
  50-59 19 * * * 0.00;
  0-9 20 * * * 0.00;
  10-19 20 * * * 0.00;
  20-29 20 * * * 0.00;
  30-39 20 * * * 0.00;
  40-49 20 * * * 0.00;
  50-59 20 * * * 0.00;
  0-9 21 * * * 0.00;
  10-19 21 * * * 0.00;
  20-29 21 * * * 0.00;
  30-39 21 * * * 0.00;
  40-49 21 * * * 0.00;
  50-59 21 * * * 0.00;
  0-9 22 * * * 0.00;
  10-19 22 * * * 0.00;
  20-29 22 * * * 0.00;
  30-39 22 * * * 0.00;
  40-49 22 * * * 0.00;
  50-59 22 * * * 0.00;
  0-9 23 * * * 0.00;
  10-19 23 * * * 0.00;
  20-29 23 * * * 0.00;
  30-39 23 * * * 0.00;
  40-49 23 * * * 0.00;
  50-59 23 * * * 0.00;
}

schedule water5 {
  0-9 0 * * * 0.00;
  10-19 0 * * * 0.00;
  20-29 0 * * * 0.00;
  30-39 0 * * * 0.00;
  40-49 0 * * * 0.00;
  50-59 0 * * * 0.00;
  0-9 1 * * * 0.00;
  10-19 1 * * * 0.00;
  20-29 1 * * * 0.00;
  30-39 1 * * * 0.00;
  40-49 1 * * * 0.00;
  50-59 1 * * * 0.00;
  0-9 2 * * * 0.00;
  10-19 2 * * * 0.00;
  20-29 2 * * * 0.00;
  30-39 2 * * * 0.00;
  40-49 2 * * * 0.00;
  50-59 2 * * * 0.00;
  0-9 3 * * * 0.00;
  10-19 3 * * * 0.00;
  20-29 3 * * * 0.00;
  30-39 3 * * * 0.34;
  40-49 3 * * * 0.00;
  50-59 3 * * * 0.00;
  0-9 4 * * * 0.00;
  10-19 4 * * * 0.00;
  20-29 4 * * * 0.05;
  30-39 4 * * * 0.00;
  40-49 4 * * * 0.10;
  50-59 4 * * * 0.53;
  0-9 5 * * * 0.00;
  10-19 5 * * * 0.12;
  20-29 5 * * * 0.56;
  30-39 5 * * * 0.00;
  40-49 5 * * * 0.00;
  50-59 5 * * * 0.50;
  0-9 6 * * * 0.75;
  10-19 6 * * * 0.29;
  20-29 6 * * * 0.00;
  30-39 6 * * * 0.99;
  40-49 6 * * * 0.00;
  50-59 6 * * * 0.00;
  0-9 7 * * * 0.00;
  10-19 7 * * * 0.00;
  20-29 7 * * * 0.00;
  30-39 7 * * * 0.00;
  40-49 7 * * * 0.00;
  50-59 7 * * * 0.00;
  0-9 8 * * * 0.00;
  10-19 8 * * * 0.00;
  20-29 8 * * * 0.00;
  30-39 8 * * * 0.00;
  40-49 8 * * * 0.00;
  50-59 8 * * * 0.00;
  0-9 9 * * * 1.31;
  10-19 9 * * * 0.00;
  20-29 9 * * * 0.00;
  30-39 9 * * * 0.00;
  40-49 9 * * * 0.00;
  50-59 9 * * * 0.00;
  0-9 10 * * * 0.00;
  10-19 10 * * * 0.00;
  20-29 10 * * * 0.00;
  30-39 10 * * * 0.00;
  40-49 10 * * * 0.00;
  50-59 10 * * * 0.00;
  0-9 11 * * * 0.00;
  10-19 11 * * * 0.00;
  20-29 11 * * * 0.00;
  30-39 11 * * * 0.00;
  40-49 11 * * * 0.00;
  50-59 11 * * * 0.00;
  0-9 12 * * * 0.00;
  10-19 12 * * * 0.00;
  20-29 12 * * * 0.00;
  30-39 12 * * * 0.00;
  40-49 12 * * * 0.00;
  50-59 12 * * * 0.00;
  0-9 13 * * * 0.00;
  10-19 13 * * * 0.00;
  20-29 13 * * * 0.00;
  30-39 13 * * * 0.00;
  40-49 13 * * * 0.00;
  50-59 13 * * * 1.01;
  0-9 14 * * * 5.85;
  10-19 14 * * * 0.00;
  20-29 14 * * * 0.00;
  30-39 14 * * * 0.00;
  40-49 14 * * * 0.00;
  50-59 14 * * * 0.00;
  0-9 15 * * * 0.00;
  10-19 15 * * * 0.00;
  20-29 15 * * * 0.00;
  30-39 15 * * * 0.00;
  40-49 15 * * * 0.00;
  50-59 15 * * * 0.00;
  0-9 16 * * * 0.00;
  10-19 16 * * * 0.00;
  20-29 16 * * * 0.00;
  30-39 16 * * * 0.00;
  40-49 16 * * * 0.00;
  50-59 16 * * * 0.00;
  0-9 17 * * * 0.00;
  10-19 17 * * * 0.00;
  20-29 17 * * * 0.00;
  30-39 17 * * * 0.00;
  40-49 17 * * * 0.00;
  50-59 17 * * * 0.00;
  0-9 18 * * * 0.00;
  10-19 18 * * * 0.00;
  20-29 18 * * * 0.00;
  30-39 18 * * * 0.00;
  40-49 18 * * * 0.00;
  50-59 18 * * * 0.00;
  0-9 19 * * * 0.00;
  10-19 19 * * * 0.00;
  20-29 19 * * * 0.00;
  30-39 19 * * * 0.00;
  40-49 19 * * * 0.00;
  50-59 19 * * * 0.00;
  0-9 20 * * * 0.00;
  10-19 20 * * * 0.00;
  20-29 20 * * * 0.00;
  30-39 20 * * * 0.00;
  40-49 20 * * * 0.00;
  50-59 20 * * * 0.00;
  0-9 21 * * * 0.00;
  10-19 21 * * * 0.00;
  20-29 21 * * * 0.00;
  30-39 21 * * * 0.00;
  40-49 21 * * * 0.00;
  50-59 21 * * * 0.00;
  0-9 22 * * * 0.00;
  10-19 22 * * * 0.00;
  20-29 22 * * * 0.00;
  30-39 22 * * * 0.00;
  40-49 22 * * * 0.00;
  50-59 22 * * * 0.00;
  0-9 23 * * * 0.00;
  10-19 23 * * * 0.00;
  20-29 23 * * * 0.00;
  30-39 23 * * * 0.00;
  40-49 23 * * * 0.00;
  50-59 23 * * * 0.00;
}

schedule water6 {
  0-9 0 * * * 0.00;
  10-19 0 * * * 0.00;
  20-29 0 * * * 0.00;
  30-39 0 * * * 0.00;
  40-49 0 * * * 0.00;
  50-59 0 * * * 0.00;
  0-9 1 * * * 0.00;
  10-19 1 * * * 0.00;
  20-29 1 * * * 0.00;
  30-39 1 * * * 0.00;
  40-49 1 * * * 0.00;
  50-59 1 * * * 0.00;
  0-9 2 * * * 0.00;
  10-19 2 * * * 0.00;
  20-29 2 * * * 0.00;
  30-39 2 * * * 0.00;
  40-49 2 * * * 0.00;
  50-59 2 * * * 0.00;
  0-9 3 * * * 0.00;
  10-19 3 * * * 0.00;
  20-29 3 * * * 0.00;
  30-39 3 * * * 0.00;
  40-49 3 * * * 0.24;
  50-59 3 * * * 0.00;
  0-9 4 * * * 0.00;
  10-19 4 * * * 0.04;
  20-29 4 * * * 0.27;
  30-39 4 * * * 0.00;
  40-49 4 * * * 0.12;
  50-59 4 * * * 0.00;
  0-9 5 * * * 0.16;
  10-19 5 * * * 0.00;
  20-29 5 * * * 0.00;
  30-39 5 * * * 0.00;
  40-49 5 * * * 0.00;
  50-59 5 * * * 1.05;
  0-9 6 * * * 0.00;
  10-19 6 * * * 0.00;
  20-29 6 * * * 0.00;
  30-39 6 * * * 0.50;
  40-49 6 * * * 0.00;
  50-59 6 * * * 0.00;
  0-9 7 * * * 0.00;
  10-19 7 * * * 0.00;
  20-29 7 * * * 0.00;
  30-39 7 * * * 0.00;
  40-49 7 * * * 0.00;
  50-59 7 * * * 0.00;
  0-9 8 * * * 0.00;
  10-19 8 * * * 0.00;
  20-29 8 * * * 0.00;
  30-39 8 * * * 0.06;
  40-49 8 * * * 0.00;
  50-59 8 * * * 0.00;
  0-9 9 * * * 0.00;
  10-19 9 * * * 0.00;
  20-29 9 * * * 0.00;
  30-39 9 * * * 0.00;
  40-49 9 * * * 0.00;
  50-59 9 * * * 0.63;
  0-9 10 * * * 0.00;
  10-19 10 * * * 0.00;
  20-29 10 * * * 0.00;
  30-39 10 * * * 0.00;
  40-49 10 * * * 0.00;
  50-59 10 * * * 0.00;
  0-9 11 * * * 0.00;
  10-19 11 * * * 0.00;
  20-29 11 * * * 0.00;
  30-39 11 * * * 0.00;
  40-49 11 * * * 0.00;
  50-59 11 * * * 0.00;
  0-9 12 * * * 0.00;
  10-19 12 * * * 0.00;
  20-29 12 * * * 0.00;
  30-39 12 * * * 0.00;
  40-49 12 * * * 0.00;
  50-59 12 * * * 0.00;
  0-9 13 * * * 0.00;
  10-19 13 * * * 0.00;
  20-29 13 * * * 0.00;
  30-39 13 * * * 0.00;
  40-49 13 * * * 0.00;
  50-59 13 * * * 0.70;
  0-9 14 * * * 0.52;
  10-19 14 * * * 0.00;
  20-29 14 * * * 0.94;
  30-39 14 * * * 0.00;
  40-49 14 * * * 0.00;
  50-59 14 * * * 0.00;
  0-9 15 * * * 0.00;
  10-19 15 * * * 0.00;
  20-29 15 * * * 0.00;
  30-39 15 * * * 0.00;
  40-49 15 * * * 0.00;
  50-59 15 * * * 0.00;
  0-9 16 * * * 0.00;
  10-19 16 * * * 0.00;
  20-29 16 * * * 0.00;
  30-39 16 * * * 0.00;
  40-49 16 * * * 0.00;
  50-59 16 * * * 0.00;
  0-9 17 * * * 0.00;
  10-19 17 * * * 0.00;
  20-29 17 * * * 0.52;
  30-39 17 * * * 0.00;
  40-49 17 * * * 0.00;
  50-59 17 * * * 0.00;
  0-9 18 * * * 0.00;
  10-19 18 * * * 0.00;
  20-29 18 * * * 0.00;
  30-39 18 * * * 0.00;
  40-49 18 * * * 0.24;
  50-59 18 * * * 0.00;
  0-9 19 * * * 0.00;
  10-19 19 * * * 0.00;
  20-29 19 * * * 0.00;
  30-39 19 * * * 0.00;
  40-49 19 * * * 0.82;
  50-59 19 * * * 0.00;
  0-9 20 * * * 0.00;
  10-19 20 * * * 0.00;
  20-29 20 * * * 0.00;
  30-39 20 * * * 0.00;
  40-49 20 * * * 0.00;
  50-59 20 * * * 0.00;
  0-9 21 * * * 0.00;
  10-19 21 * * * 0.00;
  20-29 21 * * * 0.00;
  30-39 21 * * * 0.00;
  40-49 21 * * * 0.00;
  50-59 21 * * * 0.00;
  0-9 22 * * * 0.00;
  10-19 22 * * * 0.00;
  20-29 22 * * * 0.00;
  30-39 22 * * * 0.00;
  40-49 22 * * * 0.00;
  50-59 22 * * * 0.00;
  0-9 23 * * * 0.00;
  10-19 23 * * * 0.00;
  20-29 23 * * * 0.00;
  30-39 23 * * * 0.00;
  40-49 23 * * * 0.00;
  50-59 23 * * * 0.00;
}

schedule water7 {
  0-9 0 * * * 0.00;
  10-19 0 * * * 0.00;
  20-29 0 * * * 0.00;
  30-39 0 * * * 0.00;
  40-49 0 * * * 0.00;
  50-59 0 * * * 0.00;
  0-9 1 * * * 0.00;
  10-19 1 * * * 0.00;
  20-29 1 * * * 0.00;
  30-39 1 * * * 0.00;
  40-49 1 * * * 0.00;
  50-59 1 * * * 0.00;
  0-9 2 * * * 0.00;
  10-19 2 * * * 0.00;
  20-29 2 * * * 0.00;
  30-39 2 * * * 0.00;
  40-49 2 * * * 0.00;
  50-59 2 * * * 0.10;
  0-9 3 * * * 0.77;
  10-19 3 * * * 0.00;
  20-29 3 * * * 0.00;
  30-39 3 * * * 0.00;
  40-49 3 * * * 0.00;
  50-59 3 * * * 0.00;
  0-9 4 * * * 0.00;
  10-19 4 * * * 0.00;
  20-29 4 * * * 0.00;
  30-39 4 * * * 0.00;
  40-49 4 * * * 0.00;
  50-59 4 * * * 0.00;
  0-9 5 * * * 0.00;
  10-19 5 * * * 0.00;
  20-29 5 * * * 0.00;
  30-39 5 * * * 0.06;
  40-49 5 * * * 0.00;
  50-59 5 * * * 0.53;
  0-9 6 * * * 0.38;
  10-19 6 * * * 0.81;
  20-29 6 * * * 0.00;
  30-39 6 * * * 0.00;
  40-49 6 * * * 0.00;
  50-59 6 * * * 0.00;
  0-9 7 * * * 0.00;
  10-19 7 * * * 0.29;
  20-29 7 * * * 0.69;
  30-39 7 * * * 0.00;
  40-49 7 * * * 0.00;
  50-59 7 * * * 0.00;
  0-9 8 * * * 0.00;
  10-19 8 * * * 0.00;
  20-29 8 * * * 0.00;
  30-39 8 * * * 0.75;
  40-49 8 * * * 0.00;
  50-59 8 * * * 0.00;
  0-9 9 * * * 0.00;
  10-19 9 * * * 0.00;
  20-29 9 * * * 0.00;
  30-39 9 * * * 0.00;
  40-49 9 * * * 0.00;
  50-59 9 * * * 0.00;
  0-9 10 * * * 0.00;
  10-19 10 * * * 0.00;
  20-29 10 * * * 0.00;
  30-39 10 * * * 0.00;
  40-49 10 * * * 0.00;
  50-59 10 * * * 0.00;
  0-9 11 * * * 0.00;
  10-19 11 * * * 0.00;
  20-29 11 * * * 0.00;
  30-39 11 * * * 0.00;
  40-49 11 * * * 0.00;
  50-59 11 * * * 0.00;
  0-9 12 * * * 0.00;
  10-19 12 * * * 0.00;
  20-29 12 * * * 0.00;
  30-39 12 * * * 0.00;
  40-49 12 * * * 0.00;
  50-59 12 * * * 0.00;
  0-9 13 * * * 0.00;
  10-19 13 * * * 0.00;
  20-29 13 * * * 0.00;
  30-39 13 * * * 0.00;
  40-49 13 * * * 0.00;
  50-59 13 * * * 0.17;
  0-9 14 * * * 1.48;
  10-19 14 * * * 0.00;
  20-29 14 * * * 0.00;
  30-39 14 * * * 0.79;
  40-49 14 * * * 0.00;
  50-59 14 * * * 0.00;
  0-9 15 * * * 0.00;
  10-19 15 * * * 0.00;
  20-29 15 * * * 0.00;
  30-39 15 * * * 0.00;
  40-49 15 * * * 0.00;
  50-59 15 * * * 0.00;
  0-9 16 * * * 0.15;
  10-19 16 * * * 0.00;
  20-29 16 * * * 0.00;
  30-39 16 * * * 0.00;
  40-49 16 * * * 0.00;
  50-59 16 * * * 0.00;
  0-9 17 * * * 0.00;
  10-19 17 * * * 0.22;
  20-29 17 * * * 0.00;
  30-39 17 * * * 0.00;
  40-49 17 * * * 0.00;
  50-59 17 * * * 0.54;
  0-9 18 * * * 0.00;
  10-19 18 * * * 0.00;
  20-29 18 * * * 0.00;
  30-39 18 * * * 0.00;
  40-49 18 * * * 0.00;
  50-59 18 * * * 0.91;
  0-9 19 * * * 0.00;
  10-19 19 * * * 0.00;
  20-29 19 * * * 0.00;
  30-39 19 * * * 1.07;
  40-49 19 * * * 0.00;
  50-59 19 * * * 0.00;
  0-9 20 * * * 0.00;
  10-19 20 * * * 0.00;
  20-29 20 * * * 0.00;
  30-39 20 * * * 0.00;
  40-49 20 * * * 0.00;
  50-59 20 * * * 0.00;
  0-9 21 * * * 0.00;
  10-19 21 * * * 0.00;
  20-29 21 * * * 0.00;
  30-39 21 * * * 0.00;
  40-49 21 * * * 0.00;
  50-59 21 * * * 0.00;
  0-9 22 * * * 0.00;
  10-19 22 * * * 0.00;
  20-29 22 * * * 0.00;
  30-39 22 * * * 0.00;
  40-49 22 * * * 0.00;
  50-59 22 * * * 0.00;
  0-9 23 * * * 0.00;
  10-19 23 * * * 0.00;
  20-29 23 * * * 0.00;
  30-39 23 * * * 0.00;
  40-49 23 * * * 0.00;
  50-59 23 * * * 0.00;
}

schedule water8 {
  0-9 0 * * * 0.00;
  10-19 0 * * * 0.00;
  20-29 0 * * * 0.00;
  30-39 0 * * * 0.00;
  40-49 0 * * * 0.00;
  50-59 0 * * * 0.00;
  0-9 1 * * * 0.00;
  10-19 1 * * * 0.00;
  20-29 1 * * * 0.00;
  30-39 1 * * * 0.00;
  40-49 1 * * * 0.00;
  50-59 1 * * * 0.07;
  0-9 2 * * * 0.00;
  10-19 2 * * * 0.00;
  20-29 2 * * * 0.00;
  30-39 2 * * * 0.00;
  40-49 2 * * * 0.00;
  50-59 2 * * * 0.00;
  0-9 3 * * * 0.00;
  10-19 3 * * * 0.37;
  20-29 3 * * * 0.00;
  30-39 3 * * * 0.00;
  40-49 3 * * * 0.00;
  50-59 3 * * * 0.00;
  0-9 4 * * * 0.00;
  10-19 4 * * * 0.00;
  20-29 4 * * * 0.00;
  30-39 4 * * * 0.00;
  40-49 4 * * * 0.00;
  50-59 4 * * * 0.00;
  0-9 5 * * * 0.00;
  10-19 5 * * * 0.00;
  20-29 5 * * * 0.00;
  30-39 5 * * * 0.00;
  40-49 5 * * * 0.00;
  50-59 5 * * * 0.40;
  0-9 6 * * * 0.32;
  10-19 6 * * * 0.00;
  20-29 6 * * * 0.00;
  30-39 6 * * * 0.00;
  40-49 6 * * * 0.00;
  50-59 6 * * * 0.00;
  0-9 7 * * * 0.69;
  10-19 7 * * * 0.00;
  20-29 7 * * * 0.00;
  30-39 7 * * * 0.00;
  40-49 7 * * * 0.00;
  50-59 7 * * * 0.00;
  0-9 8 * * * 0.00;
  10-19 8 * * * 0.00;
  20-29 8 * * * 0.00;
  30-39 8 * * * 0.00;
  40-49 8 * * * 0.00;
  50-59 8 * * * 0.00;
  0-9 9 * * * 0.00;
  10-19 9 * * * 0.00;
  20-29 9 * * * 0.00;
  30-39 9 * * * 0.00;
  40-49 9 * * * 0.00;
  50-59 9 * * * 0.00;
  0-9 10 * * * 0.00;
  10-19 10 * * * 0.00;
  20-29 10 * * * 0.00;
  30-39 10 * * * 0.00;
  40-49 10 * * * 0.00;
  50-59 10 * * * 0.00;
  0-9 11 * * * 0.00;
  10-19 11 * * * 0.00;
  20-29 11 * * * 0.00;
  30-39 11 * * * 0.00;
  40-49 11 * * * 0.00;
  50-59 11 * * * 0.00;
  0-9 12 * * * 0.00;
  10-19 12 * * * 0.00;
  20-29 12 * * * 0.00;
  30-39 12 * * * 0.00;
  40-49 12 * * * 0.00;
  50-59 12 * * * 0.00;
  0-9 13 * * * 0.00;
  10-19 13 * * * 0.00;
  20-29 13 * * * 0.00;
  30-39 13 * * * 0.00;
  40-49 13 * * * 0.00;
  50-59 13 * * * 2.87;
  0-9 14 * * * 0.00;
  10-19 14 * * * 0.00;
  20-29 14 * * * 0.00;
  30-39 14 * * * 0.00;
  40-49 14 * * * 0.00;
  50-59 14 * * * 0.00;
  0-9 15 * * * 0.00;
  10-19 15 * * * 0.00;
  20-29 15 * * * 0.00;
  30-39 15 * * * 0.00;
  40-49 15 * * * 0.00;
  50-59 15 * * * 0.00;
  0-9 16 * * * 0.00;
  10-19 16 * * * 0.00;
  20-29 16 * * * 0.00;
  30-39 16 * * * 0.00;
  40-49 16 * * * 0.00;
  50-59 16 * * * 0.00;
  0-9 17 * * * 0.00;
  10-19 17 * * * 0.00;
  20-29 17 * * * 0.00;
  30-39 17 * * * 0.00;
  40-49 17 * * * 0.00;
  50-59 17 * * * 0.00;
  0-9 18 * * * 0.00;
  10-19 18 * * * 0.00;
  20-29 18 * * * 0.00;
  30-39 18 * * * 0.00;
  40-49 18 * * * 0.00;
  50-59 18 * * * 0.00;
  0-9 19 * * * 0.00;
  10-19 19 * * * 0.00;
  20-29 19 * * * 0.00;
  30-39 19 * * * 0.00;
  40-49 19 * * * 0.00;
  50-59 19 * * * 0.00;
  0-9 20 * * * 0.00;
  10-19 20 * * * 0.00;
  20-29 20 * * * 0.00;
  30-39 20 * * * 0.00;
  40-49 20 * * * 0.00;
  50-59 20 * * * 0.00;
  0-9 21 * * * 0.00;
  10-19 21 * * * 0.00;
  20-29 21 * * * 0.00;
  30-39 21 * * * 0.00;
  40-49 21 * * * 0.00;
  50-59 21 * * * 0.00;
  0-9 22 * * * 0.00;
  10-19 22 * * * 0.00;
  20-29 22 * * * 0.00;
  30-39 22 * * * 0.00;
  40-49 22 * * * 0.00;
  50-59 22 * * * 0.00;
  0-9 23 * * * 0.00;
  10-19 23 * * * 0.00;
  20-29 23 * * * 0.00;
  30-39 23 * * * 0.00;
  40-49 23 * * * 0.00;
  50-59 23 * * * 0.00;
}

schedule water9 {
  0-9 0 * * * 0.00;
  10-19 0 * * * 0.00;
  20-29 0 * * * 0.00;
  30-39 0 * * * 0.00;
  40-49 0 * * * 0.00;
  50-59 0 * * * 0.00;
  0-9 1 * * * 0.00;
  10-19 1 * * * 0.00;
  20-29 1 * * * 0.00;
  30-39 1 * * * 0.00;
  40-49 1 * * * 0.00;
  50-59 1 * * * 0.00;
  0-9 2 * * * 0.00;
  10-19 2 * * * 0.00;
  20-29 2 * * * 0.00;
  30-39 2 * * * 0.00;
  40-49 2 * * * 0.00;
  50-59 2 * * * 0.21;
  0-9 3 * * * 0.47;
  10-19 3 * * * 0.00;
  20-29 3 * * * 0.00;
  30-39 3 * * * 0.00;
  40-49 3 * * * 0.05;
  50-59 3 * * * 0.32;
  0-9 4 * * * 0.00;
  10-19 4 * * * 0.00;
  20-29 4 * * * 0.00;
  30-39 4 * * * 0.00;
  40-49 4 * * * 0.56;
  50-59 4 * * * 0.00;
  0-9 5 * * * 0.00;
  10-19 5 * * * 0.00;
  20-29 5 * * * 0.00;
  30-39 5 * * * 0.00;
  40-49 5 * * * 0.00;
  50-59 5 * * * 0.05;
  0-9 6 * * * 1.03;
  10-19 6 * * * 0.00;
  20-29 6 * * * 0.00;
  30-39 6 * * * 0.00;
  40-49 6 * * * 0.26;
  50-59 6 * * * 0.00;
  0-9 7 * * * 0.77;
  10-19 7 * * * 0.00;
  20-29 7 * * * 0.00;
  30-39 7 * * * 0.00;
  40-49 7 * * * 0.00;
  50-59 7 * * * 0.00;
  0-9 8 * * * 0.00;
  10-19 8 * * * 0.00;
  20-29 8 * * * 0.00;
  30-39 8 * * * 0.00;
  40-49 8 * * * 0.00;
  50-59 8 * * * 0.00;
  0-9 9 * * * 0.91;
  10-19 9 * * * 0.00;
  20-29 9 * * * 0.00;
  30-39 9 * * * 0.00;
  40-49 9 * * * 0.00;
  50-59 9 * * * 0.00;
  0-9 10 * * * 0.00;
  10-19 10 * * * 0.00;
  20-29 10 * * * 0.00;
  30-39 10 * * * 0.00;
  40-49 10 * * * 0.00;
  50-59 10 * * * 0.00;
  0-9 11 * * * 0.00;
  10-19 11 * * * 0.00;
  20-29 11 * * * 0.00;
  30-39 11 * * * 0.00;
  40-49 11 * * * 0.00;
  50-59 11 * * * 0.00;
  0-9 12 * * * 0.00;
  10-19 12 * * * 0.00;
  20-29 12 * * * 0.00;
  30-39 12 * * * 0.00;
  40-49 12 * * * 0.00;
  50-59 12 * * * 0.00;
  0-9 13 * * * 0.00;
  10-19 13 * * * 0.00;
  20-29 13 * * * 0.00;
  30-39 13 * * * 0.00;
  40-49 13 * * * 0.00;
  50-59 13 * * * 0.59;
  0-9 14 * * * 0.00;
  10-19 14 * * * 0.00;
  20-29 14 * * * 0.00;
  30-39 14 * * * 0.25;
  40-49 14 * * * 0.00;
  50-59 14 * * * 0.32;
  0-9 15 * * * 0.00;
  10-19 15 * * * 0.03;
  20-29 15 * * * 0.00;
  30-39 15 * * * 0.00;
  40-49 15 * * * 0.65;
  50-59 15 * * * 0.00;
  0-9 16 * * * 0.00;
  10-19 16 * * * 1.04;
  20-29 16 * * * 0.00;
  30-39 16 * * * 0.00;
  40-49 16 * * * 0.00;
  50-59 16 * * * 0.00;
  0-9 17 * * * 0.00;
  10-19 17 * * * 0.00;
  20-29 17 * * * 0.00;
  30-39 17 * * * 0.00;
  40-49 17 * * * 0.00;
  50-59 17 * * * 0.00;
  0-9 18 * * * 0.56;
  10-19 18 * * * 0.00;
  20-29 18 * * * 0.00;
  30-39 18 * * * 0.00;
  40-49 18 * * * 0.00;
  50-59 18 * * * 0.00;
  0-9 19 * * * 0.00;
  10-19 19 * * * 0.00;
  20-29 19 * * * 0.00;
  30-39 19 * * * 0.41;
  40-49 19 * * * 0.00;
  50-59 19 * * * 0.00;
  0-9 20 * * * 0.00;
  10-19 20 * * * 0.00;
  20-29 20 * * * 0.00;
  30-39 20 * * * 0.00;
  40-49 20 * * * 0.00;
  50-59 20 * * * 0.00;
  0-9 21 * * * 0.00;
  10-19 21 * * * 0.00;
  20-29 21 * * * 0.00;
  30-39 21 * * * 0.00;
  40-49 21 * * * 0.00;
  50-59 21 * * * 0.00;
  0-9 22 * * * 0.00;
  10-19 22 * * * 0.00;
  20-29 22 * * * 0.00;
  30-39 22 * * * 0.00;
  40-49 22 * * * 0.00;
  50-59 22 * * * 0.00;
  0-9 23 * * * 0.00;
  10-19 23 * * * 0.00;
  20-29 23 * * * 0.00;
  30-39 23 * * * 0.00;
  40-49 23 * * * 0.00;
  50-59 23 * * * 0.00;
}

schedule water10 {
  0-9 0 * * * 0.00;
  10-19 0 * * * 0.00;
  20-29 0 * * * 0.00;
  30-39 0 * * * 0.00;
  40-49 0 * * * 0.00;
  50-59 0 * * * 0.00;
  0-9 1 * * * 0.00;
  10-19 1 * * * 0.00;
  20-29 1 * * * 0.00;
  30-39 1 * * * 0.00;
  40-49 1 * * * 0.00;
  50-59 1 * * * 0.00;
  0-9 2 * * * 0.00;
  10-19 2 * * * 0.00;
  20-29 2 * * * 0.00;
  30-39 2 * * * 0.00;
  40-49 2 * * * 0.00;
  50-59 2 * * * 0.00;
  0-9 3 * * * 0.00;
  10-19 3 * * * 0.40;
  20-29 3 * * * 0.00;
  30-39 3 * * * 0.00;
  40-49 3 * * * 0.00;
  50-59 3 * * * 0.00;
  0-9 4 * * * 0.00;
  10-19 4 * * * 0.22;
  20-29 4 * * * 0.00;
  30-39 4 * * * 0.06;
  40-49 4 * * * 0.00;
  50-59 4 * * * 0.00;
  0-9 5 * * * 0.00;
  10-19 5 * * * 0.00;
  20-29 5 * * * 0.52;
  30-39 5 * * * 0.00;
  40-49 5 * * * 0.00;
  50-59 5 * * * 0.47;
  0-9 6 * * * 0.00;
  10-19 6 * * * 0.00;
  20-29 6 * * * 0.00;
  30-39 6 * * * 0.00;
  40-49 6 * * * 0.00;
  50-59 6 * * * 0.00;
  0-9 7 * * * 0.00;
  10-19 7 * * * 0.00;
  20-29 7 * * * 0.00;
  30-39 7 * * * 0.00;
  40-49 7 * * * 0.00;
  50-59 7 * * * 1.08;
  0-9 8 * * * 0.00;
  10-19 8 * * * 0.00;
  20-29 8 * * * 0.00;
  30-39 8 * * * 0.00;
  40-49 8 * * * 0.00;
  50-59 8 * * * 0.00;
  0-9 9 * * * 0.00;
  10-19 9 * * * 0.00;
  20-29 9 * * * 0.00;
  30-39 9 * * * 0.00;
  40-49 9 * * * 0.00;
  50-59 9 * * * 0.00;
  0-9 10 * * * 0.00;
  10-19 10 * * * 0.00;
  20-29 10 * * * 0.00;
  30-39 10 * * * 0.00;
  40-49 10 * * * 0.00;
  50-59 10 * * * 0.00;
  0-9 11 * * * 0.00;
  10-19 11 * * * 0.00;
  20-29 11 * * * 0.00;
  30-39 11 * * * 0.00;
  40-49 11 * * * 0.00;
  50-59 11 * * * 0.00;
  0-9 12 * * * 0.00;
  10-19 12 * * * 0.00;
  20-29 12 * * * 0.00;
  30-39 12 * * * 0.00;
  40-49 12 * * * 0.00;
  50-59 12 * * * 0.00;
  0-9 13 * * * 0.00;
  10-19 13 * * * 0.00;
  20-29 13 * * * 0.00;
  30-39 13 * * * 0.00;
  40-49 13 * * * 0.00;
  50-59 13 * * * 0.91;
  0-9 14 * * * 0.00;
  10-19 14 * * * 0.00;
  20-29 14 * * * 0.00;
  30-39 14 * * * 0.00;
  40-49 14 * * * 0.00;
  50-59 14 * * * 0.00;
  0-9 15 * * * 0.00;
  10-19 15 * * * 0.00;
  20-29 15 * * * 0.00;
  30-39 15 * * * 0.00;
  40-49 15 * * * 0.00;
  50-59 15 * * * 0.00;
  0-9 16 * * * 0.00;
  10-19 16 * * * 0.00;
  20-29 16 * * * 0.00;
  30-39 16 * * * 0.00;
  40-49 16 * * * 0.00;
  50-59 16 * * * 0.00;
  0-9 17 * * * 0.00;
  10-19 17 * * * 0.69;
  20-29 17 * * * 0.00;
  30-39 17 * * * 0.00;
  40-49 17 * * * 0.00;
  50-59 17 * * * 0.00;
  0-9 18 * * * 0.00;
  10-19 18 * * * 0.00;
  20-29 18 * * * 0.00;
  30-39 18 * * * 0.00;
  40-49 18 * * * 0.00;
  50-59 18 * * * 0.00;
  0-9 19 * * * 0.00;
  10-19 19 * * * 0.00;
  20-29 19 * * * 0.00;
  30-39 19 * * * 0.00;
  40-49 19 * * * 0.00;
  50-59 19 * * * 0.00;
  0-9 20 * * * 0.00;
  10-19 20 * * * 0.00;
  20-29 20 * * * 0.00;
  30-39 20 * * * 0.00;
  40-49 20 * * * 0.00;
  50-59 20 * * * 0.00;
  0-9 21 * * * 0.00;
  10-19 21 * * * 0.00;
  20-29 21 * * * 0.00;
  30-39 21 * * * 0.00;
  40-49 21 * * * 0.00;
  50-59 21 * * * 0.00;
  0-9 22 * * * 0.00;
  10-19 22 * * * 0.00;
  20-29 22 * * * 0.00;
  30-39 22 * * * 0.00;
  40-49 22 * * * 0.00;
  50-59 22 * * * 0.00;
  0-9 23 * * * 0.00;
  10-19 23 * * * 0.00;
  20-29 23 * * * 0.00;
  30-39 23 * * * 0.00;
  40-49 23 * * * 0.00;
  50-59 23 * * * 0.00;
}

schedule water11 {
  0-9 0 * * * 0.00;
  10-19 0 * * * 0.00;
  20-29 0 * * * 0.00;
  30-39 0 * * * 0.00;
  40-49 0 * * * 0.00;
  50-59 0 * * * 0.00;
  0-9 1 * * * 0.00;
  10-19 1 * * * 0.00;
  20-29 1 * * * 0.00;
  30-39 1 * * * 0.00;
  40-49 1 * * * 0.00;
  50-59 1 * * * 0.00;
  0-9 2 * * * 0.00;
  10-19 2 * * * 0.00;
  20-29 2 * * * 0.00;
  30-39 2 * * * 0.00;
  40-49 2 * * * 0.00;
  50-59 2 * * * 0.00;
  0-9 3 * * * 0.00;
  10-19 3 * * * 0.00;
  20-29 3 * * * 0.94;
  30-39 3 * * * 0.00;
  40-49 3 * * * 0.52;
  50-59 3 * * * 0.00;
  0-9 4 * * * 0.00;
  10-19 4 * * * 0.00;
  20-29 4 * * * 0.00;
  30-39 4 * * * 0.00;
  40-49 4 * * * 0.00;
  50-59 4 * * * 0.00;
  0-9 5 * * * 0.83;
  10-19 5 * * * 0.00;
  20-29 5 * * * 0.00;
  30-39 5 * * * 0.00;
  40-49 5 * * * 0.00;
  50-59 5 * * * 1.93;
  0-9 6 * * * 0.00;
  10-19 6 * * * 0.00;
  20-29 6 * * * 0.00;
  30-39 6 * * * 0.00;
  40-49 6 * * * 0.00;
  50-59 6 * * * 0.00;
  0-9 7 * * * 0.00;
  10-19 7 * * * 0.00;
  20-29 7 * * * 0.00;
  30-39 7 * * * 0.00;
  40-49 7 * * * 0.00;
  50-59 7 * * * 0.00;
  0-9 8 * * * 0.00;
  10-19 8 * * * 0.00;
  20-29 8 * * * 0.00;
  30-39 8 * * * 0.24;
  40-49 8 * * * 0.00;
  50-59 8 * * * 0.00;
  0-9 9 * * * 0.00;
  10-19 9 * * * 0.00;
  20-29 9 * * * 0.00;
  30-39 9 * * * 0.00;
  40-49 9 * * * 1.46;
  50-59 9 * * * 0.00;
  0-9 10 * * * 0.00;
  10-19 10 * * * 0.00;
  20-29 10 * * * 0.00;
  30-39 10 * * * 0.00;
  40-49 10 * * * 0.00;
  50-59 10 * * * 0.00;
  0-9 11 * * * 0.00;
  10-19 11 * * * 0.00;
  20-29 11 * * * 0.00;
  30-39 11 * * * 0.00;
  40-49 11 * * * 0.00;
  50-59 11 * * * 0.00;
  0-9 12 * * * 0.00;
  10-19 12 * * * 0.00;
  20-29 12 * * * 0.00;
  30-39 12 * * * 0.00;
  40-49 12 * * * 0.00;
  50-59 12 * * * 0.00;
  0-9 13 * * * 0.00;
  10-19 13 * * * 0.00;
  20-29 13 * * * 0.00;
  30-39 13 * * * 0.00;
  40-49 13 * * * 0.00;
  50-59 13 * * * 1.85;
  0-9 14 * * * 0.00;
  10-19 14 * * * 0.00;
  20-29 14 * * * 0.00;
  30-39 14 * * * 0.00;
  40-49 14 * * * 0.00;
  50-59 14 * * * 0.00;
  0-9 15 * * * 0.00;
  10-19 15 * * * 0.64;
  20-29 15 * * * 0.00;
  30-39 15 * * * 0.00;
  40-49 15 * * * 0.00;
  50-59 15 * * * 0.00;
  0-9 16 * * * 0.00;
  10-19 16 * * * 0.00;
  20-29 16 * * * 0.00;
  30-39 16 * * * 0.00;
  40-49 16 * * * 0.00;
  50-59 16 * * * 2.48;
  0-9 17 * * * 0.00;
  10-19 17 * * * 0.00;
  20-29 17 * * * 0.00;
  30-39 17 * * * 0.00;
  40-49 17 * * * 0.00;
  50-59 17 * * * 0.00;
  0-9 18 * * * 0.00;
  10-19 18 * * * 0.00;
  20-29 18 * * * 0.00;
  30-39 18 * * * 0.00;
  40-49 18 * * * 0.00;
  50-59 18 * * * 0.00;
  0-9 19 * * * 0.00;
  10-19 19 * * * 0.00;
  20-29 19 * * * 0.00;
  30-39 19 * * * 0.00;
  40-49 19 * * * 0.00;
  50-59 19 * * * 0.00;
  0-9 20 * * * 0.00;
  10-19 20 * * * 0.00;
  20-29 20 * * * 0.00;
  30-39 20 * * * 0.00;
  40-49 20 * * * 0.00;
  50-59 20 * * * 0.00;
  0-9 21 * * * 0.00;
  10-19 21 * * * 0.00;
  20-29 21 * * * 0.00;
  30-39 21 * * * 0.00;
  40-49 21 * * * 0.00;
  50-59 21 * * * 0.00;
  0-9 22 * * * 0.00;
  10-19 22 * * * 0.00;
  20-29 22 * * * 0.00;
  30-39 22 * * * 0.00;
  40-49 22 * * * 0.00;
  50-59 22 * * * 0.00;
  0-9 23 * * * 0.00;
  10-19 23 * * * 0.00;
  20-29 23 * * * 0.00;
  30-39 23 * * * 0.00;
  40-49 23 * * * 0.00;
  50-59 23 * * * 0.00;
}

schedule water12 {
  0-9 0 * * * 0.00;
  10-19 0 * * * 0.00;
  20-29 0 * * * 0.00;
  30-39 0 * * * 0.00;
  40-49 0 * * * 0.00;
  50-59 0 * * * 0.00;
  0-9 1 * * * 0.00;
  10-19 1 * * * 0.00;
  20-29 1 * * * 0.00;
  30-39 1 * * * 0.00;
  40-49 1 * * * 0.00;
  50-59 1 * * * 0.00;
  0-9 2 * * * 0.00;
  10-19 2 * * * 0.00;
  20-29 2 * * * 0.00;
  30-39 2 * * * 0.49;
  40-49 2 * * * 0.00;
  50-59 2 * * * 0.00;
  0-9 3 * * * 0.00;
  10-19 3 * * * 0.00;
  20-29 3 * * * 0.00;
  30-39 3 * * * 0.00;
  40-49 3 * * * 0.00;
  50-59 3 * * * 0.66;
  0-9 4 * * * 0.00;
  10-19 4 * * * 0.00;
  20-29 4 * * * 0.00;
  30-39 4 * * * 0.00;
  40-49 4 * * * 0.00;
  50-59 4 * * * 0.00;
  0-9 5 * * * 0.00;
  10-19 5 * * * 0.00;
  20-29 5 * * * 0.00;
  30-39 5 * * * 0.00;
  40-49 5 * * * 0.00;
  50-59 5 * * * 1.97;
  0-9 6 * * * 0.00;
  10-19 6 * * * 0.00;
  20-29 6 * * * 0.00;
  30-39 6 * * * 0.00;
  40-49 6 * * * 0.00;
  50-59 6 * * * 0.00;
  0-9 7 * * * 0.00;
  10-19 7 * * * 0.00;
  20-29 7 * * * 0.00;
  30-39 7 * * * 0.00;
  40-49 7 * * * 0.00;
  50-59 7 * * * 0.00;
  0-9 8 * * * 0.00;
  10-19 8 * * * 0.00;
  20-29 8 * * * 0.00;
  30-39 8 * * * 0.00;
  40-49 8 * * * 0.00;
  50-59 8 * * * 0.00;
  0-9 9 * * * 0.00;
  10-19 9 * * * 0.00;
  20-29 9 * * * 0.00;
  30-39 9 * * * 0.00;
  40-49 9 * * * 0.49;
  50-59 9 * * * 0.00;
  0-9 10 * * * 0.00;
  10-19 10 * * * 0.00;
  20-29 10 * * * 0.00;
  30-39 10 * * * 0.00;
  40-49 10 * * * 0.00;
  50-59 10 * * * 0.00;
  0-9 11 * * * 0.00;
  10-19 11 * * * 0.00;
  20-29 11 * * * 0.00;
  30-39 11 * * * 0.00;
  40-49 11 * * * 0.00;
  50-59 11 * * * 0.00;
  0-9 12 * * * 0.00;
  10-19 12 * * * 0.00;
  20-29 12 * * * 0.00;
  30-39 12 * * * 0.00;
  40-49 12 * * * 0.00;
  50-59 12 * * * 0.00;
  0-9 13 * * * 0.00;
  10-19 13 * * * 0.00;
  20-29 13 * * * 0.00;
  30-39 13 * * * 0.00;
  40-49 13 * * * 0.00;
  50-59 13 * * * 0.00;
  0-9 14 * * * 1.30;
  10-19 14 * * * 0.00;
  20-29 14 * * * 0.00;
  30-39 14 * * * 0.00;
  40-49 14 * * * 0.00;
  50-59 14 * * * 0.00;
  0-9 15 * * * 0.00;
  10-19 15 * * * 0.00;
  20-29 15 * * * 0.00;
  30-39 15 * * * 0.00;
  40-49 15 * * * 0.00;
  50-59 15 * * * 0.00;
  0-9 16 * * * 0.00;
  10-19 16 * * * 0.00;
  20-29 16 * * * 0.00;
  30-39 16 * * * 0.00;
  40-49 16 * * * 0.00;
  50-59 16 * * * 1.33;
  0-9 17 * * * 0.00;
  10-19 17 * * * 0.00;
  20-29 17 * * * 0.00;
  30-39 17 * * * 0.00;
  40-49 17 * * * 0.00;
  50-59 17 * * * 0.00;
  0-9 18 * * * 0.00;
  10-19 18 * * * 0.00;
  20-29 18 * * * 0.00;
  30-39 18 * * * 0.00;
  40-49 18 * * * 0.00;
  50-59 18 * * * 0.00;
  0-9 19 * * * 0.00;
  10-19 19 * * * 0.00;
  20-29 19 * * * 0.00;
  30-39 19 * * * 0.00;
  40-49 19 * * * 0.00;
  50-59 19 * * * 1.90;
  0-9 20 * * * 0.00;
  10-19 20 * * * 0.00;
  20-29 20 * * * 0.00;
  30-39 20 * * * 0.00;
  40-49 20 * * * 0.00;
  50-59 20 * * * 0.00;
  0-9 21 * * * 0.00;
  10-19 21 * * * 0.00;
  20-29 21 * * * 0.00;
  30-39 21 * * * 0.00;
  40-49 21 * * * 0.00;
  50-59 21 * * * 0.00;
  0-9 22 * * * 0.00;
  10-19 22 * * * 0.00;
  20-29 22 * * * 0.00;
  30-39 22 * * * 0.00;
  40-49 22 * * * 0.00;
  50-59 22 * * * 0.00;
  0-9 23 * * * 0.00;
  10-19 23 * * * 0.00;
  20-29 23 * * * 0.00;
  30-39 23 * * * 0.00;
  40-49 23 * * * 0.00;
  50-59 23 * * * 0.00;
}

schedule water13 {
  0-9 0 * * * 0.00;
  10-19 0 * * * 0.00;
  20-29 0 * * * 0.00;
  30-39 0 * * * 0.00;
  40-49 0 * * * 0.00;
  50-59 0 * * * 0.00;
  0-9 1 * * * 0.00;
  10-19 1 * * * 0.00;
  20-29 1 * * * 0.00;
  30-39 1 * * * 0.00;
  40-49 1 * * * 0.00;
  50-59 1 * * * 0.00;
  0-9 2 * * * 0.00;
  10-19 2 * * * 0.00;
  20-29 2 * * * 0.00;
  30-39 2 * * * 0.00;
  40-49 2 * * * 0.00;
  50-59 2 * * * 0.83;
  0-9 3 * * * 0.00;
  10-19 3 * * * 0.00;
  20-29 3 * * * 0.00;
  30-39 3 * * * 0.00;
  40-49 3 * * * 0.00;
  50-59 3 * * * 0.00;
  0-9 4 * * * 0.19;
  10-19 4 * * * 0.00;
  20-29 4 * * * 0.00;
  30-39 4 * * * 0.00;
  40-49 4 * * * 0.00;
  50-59 4 * * * 0.00;
  0-9 5 * * * 0.00;
  10-19 5 * * * 0.00;
  20-29 5 * * * 0.00;
  30-39 5 * * * 0.00;
  40-49 5 * * * 0.00;
  50-59 5 * * * 2.11;
  0-9 6 * * * 0.00;
  10-19 6 * * * 0.00;
  20-29 6 * * * 0.00;
  30-39 6 * * * 0.00;
  40-49 6 * * * 0.00;
  50-59 6 * * * 0.00;
  0-9 7 * * * 0.00;
  10-19 7 * * * 0.00;
  20-29 7 * * * 0.00;
  30-39 7 * * * 0.00;
  40-49 7 * * * 0.00;
  50-59 7 * * * 0.00;
  0-9 8 * * * 0.00;
  10-19 8 * * * 0.00;
  20-29 8 * * * 1.52;
  30-39 8 * * * 0.00;
  40-49 8 * * * 0.00;
  50-59 8 * * * 0.00;
  0-9 9 * * * 0.00;
  10-19 9 * * * 0.00;
  20-29 9 * * * 0.00;
  30-39 9 * * * 0.00;
  40-49 9 * * * 0.00;
  50-59 9 * * * 0.00;
  0-9 10 * * * 0.00;
  10-19 10 * * * 0.00;
  20-29 10 * * * 0.00;
  30-39 10 * * * 0.00;
  40-49 10 * * * 0.00;
  50-59 10 * * * 0.00;
  0-9 11 * * * 0.00;
  10-19 11 * * * 0.00;
  20-29 11 * * * 0.00;
  30-39 11 * * * 0.00;
  40-49 11 * * * 0.00;
  50-59 11 * * * 0.00;
  0-9 12 * * * 0.00;
  10-19 12 * * * 0.00;
  20-29 12 * * * 0.00;
  30-39 12 * * * 0.00;
  40-49 12 * * * 0.00;
  50-59 12 * * * 0.00;
  0-9 13 * * * 0.00;
  10-19 13 * * * 0.00;
  20-29 13 * * * 0.00;
  30-39 13 * * * 0.00;
  40-49 13 * * * 0.00;
  50-59 13 * * * 0.49;
  0-9 14 * * * 0.00;
  10-19 14 * * * 1.69;
  20-29 14 * * * 0.00;
  30-39 14 * * * 0.00;
  40-49 14 * * * 0.00;
  50-59 14 * * * 0.00;
  0-9 15 * * * 0.00;
  10-19 15 * * * 0.00;
  20-29 15 * * * 0.00;
  30-39 15 * * * 0.00;
  40-49 15 * * * 0.00;
  50-59 15 * * * 0.00;
  0-9 16 * * * 0.00;
  10-19 16 * * * 0.00;
  20-29 16 * * * 0.00;
  30-39 16 * * * 0.00;
  40-49 16 * * * 0.00;
  50-59 16 * * * 0.00;
  0-9 17 * * * 0.00;
  10-19 17 * * * 0.00;
  20-29 17 * * * 0.00;
  30-39 17 * * * 0.00;
  40-49 17 * * * 0.00;
  50-59 17 * * * 0.00;
  0-9 18 * * * 1.72;
  10-19 18 * * * 0.00;
  20-29 18 * * * 0.00;
  30-39 18 * * * 0.00;
  40-49 18 * * * 0.00;
  50-59 18 * * * 0.00;
  0-9 19 * * * 0.00;
  10-19 19 * * * 0.00;
  20-29 19 * * * 0.00;
  30-39 19 * * * 0.00;
  40-49 19 * * * 0.00;
  50-59 19 * * * 0.00;
  0-9 20 * * * 0.00;
  10-19 20 * * * 0.00;
  20-29 20 * * * 0.00;
  30-39 20 * * * 0.00;
  40-49 20 * * * 0.00;
  50-59 20 * * * 0.00;
  0-9 21 * * * 0.00;
  10-19 21 * * * 0.00;
  20-29 21 * * * 0.00;
  30-39 21 * * * 0.00;
  40-49 21 * * * 0.00;
  50-59 21 * * * 0.00;
  0-9 22 * * * 0.00;
  10-19 22 * * * 0.00;
  20-29 22 * * * 0.00;
  30-39 22 * * * 0.00;
  40-49 22 * * * 0.00;
  50-59 22 * * * 0.00;
  0-9 23 * * * 0.00;
  10-19 23 * * * 0.00;
  20-29 23 * * * 0.00;
  30-39 23 * * * 0.00;
  40-49 23 * * * 0.00;
  50-59 23 * * * 0.00;
}

schedule water14 {
  0-9 0 * * * 0.00;
  10-19 0 * * * 0.00;
  20-29 0 * * * 0.00;
  30-39 0 * * * 0.00;
  40-49 0 * * * 0.00;
  50-59 0 * * * 0.00;
  0-9 1 * * * 0.00;
  10-19 1 * * * 0.00;
  20-29 1 * * * 0.00;
  30-39 1 * * * 0.00;
  40-49 1 * * * 0.00;
  50-59 1 * * * 0.00;
  0-9 2 * * * 0.00;
  10-19 2 * * * 0.00;
  20-29 2 * * * 0.00;
  30-39 2 * * * 0.00;
  40-49 2 * * * 0.00;
  50-59 2 * * * 0.00;
  0-9 3 * * * 0.00;
  10-19 3 * * * 0.54;
  20-29 3 * * * 0.00;
  30-39 3 * * * 0.00;
  40-49 3 * * * 0.00;
  50-59 3 * * * 0.00;
  0-9 4 * * * 0.00;
  10-19 4 * * * 0.00;
  20-29 4 * * * 0.00;
  30-39 4 * * * 0.00;
  40-49 4 * * * 0.00;
  50-59 4 * * * 0.00;
  0-9 5 * * * 0.78;
  10-19 5 * * * 0.00;
  20-29 5 * * * 0.00;
  30-39 5 * * * 0.00;
  40-49 5 * * * 0.00;
  50-59 5 * * * 0.00;
  0-9 6 * * * 0.00;
  10-19 6 * * * 0.00;
  20-29 6 * * * 0.00;
  30-39 6 * * * 0.00;
  40-49 6 * * * 0.00;
  50-59 6 * * * 0.00;
  0-9 7 * * * 0.00;
  10-19 7 * * * 0.00;
  20-29 7 * * * 0.00;
  30-39 7 * * * 0.00;
  40-49 7 * * * 0.00;
  50-59 7 * * * 0.00;
  0-9 8 * * * 0.00;
  10-19 8 * * * 0.00;
  20-29 8 * * * 1.53;
  30-39 8 * * * 0.00;
  40-49 8 * * * 0.00;
  50-59 8 * * * 0.00;
  0-9 9 * * * 0.00;
  10-19 9 * * * 0.00;
  20-29 9 * * * 0.00;
  30-39 9 * * * 0.00;
  40-49 9 * * * 0.00;
  50-59 9 * * * 0.00;
  0-9 10 * * * 0.00;
  10-19 10 * * * 0.00;
  20-29 10 * * * 0.00;
  30-39 10 * * * 0.00;
  40-49 10 * * * 0.00;
  50-59 10 * * * 0.00;
  0-9 11 * * * 0.00;
  10-19 11 * * * 0.00;
  20-29 11 * * * 0.00;
  30-39 11 * * * 0.00;
  40-49 11 * * * 0.00;
  50-59 11 * * * 0.00;
  0-9 12 * * * 0.00;
  10-19 12 * * * 0.00;
  20-29 12 * * * 0.00;
  30-39 12 * * * 0.00;
  40-49 12 * * * 0.00;
  50-59 12 * * * 0.00;
  0-9 13 * * * 0.00;
  10-19 13 * * * 0.00;
  20-29 13 * * * 0.00;
  30-39 13 * * * 0.00;
  40-49 13 * * * 0.00;
  50-59 13 * * * 0.00;
  0-9 14 * * * 0.00;
  10-19 14 * * * 0.00;
  20-29 14 * * * 0.00;
  30-39 14 * * * 0.00;
  40-49 14 * * * 0.00;
  50-59 14 * * * 0.00;
  0-9 15 * * * 0.00;
  10-19 15 * * * 0.00;
  20-29 15 * * * 0.00;
  30-39 15 * * * 0.00;
  40-49 15 * * * 0.00;
  50-59 15 * * * 0.00;
  0-9 16 * * * 0.00;
  10-19 16 * * * 0.00;
  20-29 16 * * * 0.00;
  30-39 16 * * * 0.00;
  40-49 16 * * * 0.00;
  50-59 16 * * * 0.00;
  0-9 17 * * * 0.00;
  10-19 17 * * * 0.00;
  20-29 17 * * * 0.00;
  30-39 17 * * * 0.00;
  40-49 17 * * * 0.00;
  50-59 17 * * * 0.00;
  0-9 18 * * * 0.00;
  10-19 18 * * * 1.31;
  20-29 18 * * * 0.00;
  30-39 18 * * * 0.00;
  40-49 18 * * * 0.00;
  50-59 18 * * * 0.00;
  0-9 19 * * * 0.00;
  10-19 19 * * * 0.00;
  20-29 19 * * * 0.00;
  30-39 19 * * * 0.00;
  40-49 19 * * * 0.00;
  50-59 19 * * * 0.00;
  0-9 20 * * * 0.00;
  10-19 20 * * * 0.00;
  20-29 20 * * * 0.00;
  30-39 20 * * * 0.00;
  40-49 20 * * * 0.00;
  50-59 20 * * * 0.00;
  0-9 21 * * * 0.00;
  10-19 21 * * * 0.00;
  20-29 21 * * * 0.00;
  30-39 21 * * * 0.00;
  40-49 21 * * * 0.00;
  50-59 21 * * * 0.00;
  0-9 22 * * * 0.00;
  10-19 22 * * * 0.00;
  20-29 22 * * * 0.00;
  30-39 22 * * * 0.00;
  40-49 22 * * * 0.00;
  50-59 22 * * * 0.00;
  0-9 23 * * * 0.00;
  10-19 23 * * * 0.00;
  20-29 23 * * * 0.00;
  30-39 23 * * * 0.00;
  40-49 23 * * * 0.00;
  50-59 23 * * * 0.00;
}

schedule water15 {
  0-9 0 * * * 0.00;
  10-19 0 * * * 0.00;
  20-29 0 * * * 0.00;
  30-39 0 * * * 0.00;
  40-49 0 * * * 0.00;
  50-59 0 * * * 0.00;
  0-9 1 * * * 0.00;
  10-19 1 * * * 0.00;
  20-29 1 * * * 0.00;
  30-39 1 * * * 0.00;
  40-49 1 * * * 0.00;
  50-59 1 * * * 0.00;
  0-9 2 * * * 0.00;
  10-19 2 * * * 0.00;
  20-29 2 * * * 0.00;
  30-39 2 * * * 0.00;
  40-49 2 * * * 0.00;
  50-59 2 * * * 0.00;
  0-9 3 * * * 0.90;
  10-19 3 * * * 0.00;
  20-29 3 * * * 0.00;
  30-39 3 * * * 0.00;
  40-49 3 * * * 0.00;
  50-59 3 * * * 0.00;
  0-9 4 * * * 0.00;
  10-19 4 * * * 0.00;
  20-29 4 * * * 0.00;
  30-39 4 * * * 0.00;
  40-49 4 * * * 0.00;
  50-59 4 * * * 0.00;
  0-9 5 * * * 0.00;
  10-19 5 * * * 0.56;
  20-29 5 * * * 0.00;
  30-39 5 * * * 0.00;
  40-49 5 * * * 0.00;
  50-59 5 * * * 1.14;
  0-9 6 * * * 0.00;
  10-19 6 * * * 0.00;
  20-29 6 * * * 0.00;
  30-39 6 * * * 0.00;
  40-49 6 * * * 0.00;
  50-59 6 * * * 0.00;
  0-9 7 * * * 0.00;
  10-19 7 * * * 0.00;
  20-29 7 * * * 0.00;
  30-39 7 * * * 0.00;
  40-49 7 * * * 0.00;
  50-59 7 * * * 0.00;
  0-9 8 * * * 0.00;
  10-19 8 * * * 0.00;
  20-29 8 * * * 0.00;
  30-39 8 * * * 0.00;
  40-49 8 * * * 0.00;
  50-59 8 * * * 0.00;
  0-9 9 * * * 0.00;
  10-19 9 * * * 0.00;
  20-29 9 * * * 0.00;
  30-39 9 * * * 0.00;
  40-49 9 * * * 0.00;
  50-59 9 * * * 0.00;
  0-9 10 * * * 0.00;
  10-19 10 * * * 0.00;
  20-29 10 * * * 0.00;
  30-39 10 * * * 0.00;
  40-49 10 * * * 0.00;
  50-59 10 * * * 0.00;
  0-9 11 * * * 0.00;
  10-19 11 * * * 0.00;
  20-29 11 * * * 0.00;
  30-39 11 * * * 0.00;
  40-49 11 * * * 0.00;
  50-59 11 * * * 0.00;
  0-9 12 * * * 0.00;
  10-19 12 * * * 0.00;
  20-29 12 * * * 0.00;
  30-39 12 * * * 0.00;
  40-49 12 * * * 0.00;
  50-59 12 * * * 0.00;
  0-9 13 * * * 0.00;
  10-19 13 * * * 0.00;
  20-29 13 * * * 0.00;
  30-39 13 * * * 0.00;
  40-49 13 * * * 0.00;
  50-59 13 * * * 1.51;
  0-9 14 * * * 0.00;
  10-19 14 * * * 0.00;
  20-29 14 * * * 0.00;
  30-39 14 * * * 0.00;
  40-49 14 * * * 0.00;
  50-59 14 * * * 0.00;
  0-9 15 * * * 0.00;
  10-19 15 * * * 0.00;
  20-29 15 * * * 0.00;
  30-39 15 * * * 0.00;
  40-49 15 * * * 0.00;
  50-59 15 * * * 0.00;
  0-9 16 * * * 0.00;
  10-19 16 * * * 0.00;
  20-29 16 * * * 1.70;
  30-39 16 * * * 0.00;
  40-49 16 * * * 0.00;
  50-59 16 * * * 0.00;
  0-9 17 * * * 0.00;
  10-19 17 * * * 0.00;
  20-29 17 * * * 0.00;
  30-39 17 * * * 0.00;
  40-49 17 * * * 0.00;
  50-59 17 * * * 0.00;
  0-9 18 * * * 0.00;
  10-19 18 * * * 0.00;
  20-29 18 * * * 0.00;
  30-39 18 * * * 0.00;
  40-49 18 * * * 0.00;
  50-59 18 * * * 0.00;
  0-9 19 * * * 0.00;
  10-19 19 * * * 0.00;
  20-29 19 * * * 0.00;
  30-39 19 * * * 0.00;
  40-49 19 * * * 0.00;
  50-59 19 * * * 0.00;
  0-9 20 * * * 0.00;
  10-19 20 * * * 0.00;
  20-29 20 * * * 0.00;
  30-39 20 * * * 0.00;
  40-49 20 * * * 0.00;
  50-59 20 * * * 0.00;
  0-9 21 * * * 0.00;
  10-19 21 * * * 0.00;
  20-29 21 * * * 0.00;
  30-39 21 * * * 0.00;
  40-49 21 * * * 0.00;
  50-59 21 * * * 0.00;
  0-9 22 * * * 0.00;
  10-19 22 * * * 0.00;
  20-29 22 * * * 0.00;
  30-39 22 * * * 0.00;
  40-49 22 * * * 0.00;
  50-59 22 * * * 0.00;
  0-9 23 * * * 0.00;
  10-19 23 * * * 0.00;
  20-29 23 * * * 0.00;
  30-39 23 * * * 0.00;
  40-49 23 * * * 0.00;
  50-59 23 * * * 0.00;
}

schedule water16 {
  0-9 0 * * * 0.00;
  10-19 0 * * * 0.00;
  20-29 0 * * * 0.00;
  30-39 0 * * * 0.00;
  40-49 0 * * * 0.00;
  50-59 0 * * * 0.00;
  0-9 1 * * * 0.00;
  10-19 1 * * * 0.00;
  20-29 1 * * * 0.00;
  30-39 1 * * * 0.00;
  40-49 1 * * * 0.00;
  50-59 1 * * * 0.00;
  0-9 2 * * * 0.00;
  10-19 2 * * * 0.00;
  20-29 2 * * * 0.00;
  30-39 2 * * * 0.00;
  40-49 2 * * * 0.00;
  50-59 2 * * * 0.00;
  0-9 3 * * * 0.00;
  10-19 3 * * * 0.25;
  20-29 3 * * * 0.00;
  30-39 3 * * * 0.00;
  40-49 3 * * * 0.00;
  50-59 3 * * * 0.00;
  0-9 4 * * * 0.00;
  10-19 4 * * * 0.00;
  20-29 4 * * * 0.00;
  30-39 4 * * * 0.00;
  40-49 4 * * * 0.00;
  50-59 4 * * * 0.00;
  0-9 5 * * * 0.00;
  10-19 5 * * * 0.00;
  20-29 5 * * * 0.00;
  30-39 5 * * * 0.00;
  40-49 5 * * * 0.00;
  50-59 5 * * * 0.32;
  0-9 6 * * * 0.00;
  10-19 6 * * * 2.09;
  20-29 6 * * * 0.00;
  30-39 6 * * * 0.00;
  40-49 6 * * * 0.00;
  50-59 6 * * * 0.00;
  0-9 7 * * * 0.00;
  10-19 7 * * * 0.00;
  20-29 7 * * * 0.00;
  30-39 7 * * * 0.00;
  40-49 7 * * * 0.00;
  50-59 7 * * * 0.00;
  0-9 8 * * * 0.00;
  10-19 8 * * * 0.00;
  20-29 8 * * * 0.00;
  30-39 8 * * * 0.00;
  40-49 8 * * * 0.00;
  50-59 8 * * * 0.00;
  0-9 9 * * * 0.00;
  10-19 9 * * * 0.00;
  20-29 9 * * * 0.00;
  30-39 9 * * * 0.00;
  40-49 9 * * * 0.00;
  50-59 9 * * * 0.00;
  0-9 10 * * * 0.00;
  10-19 10 * * * 0.00;
  20-29 10 * * * 0.00;
  30-39 10 * * * 0.00;
  40-49 10 * * * 0.00;
  50-59 10 * * * 0.00;
  0-9 11 * * * 0.00;
  10-19 11 * * * 0.00;
  20-29 11 * * * 0.00;
  30-39 11 * * * 0.00;
  40-49 11 * * * 0.00;
  50-59 11 * * * 0.00;
  0-9 12 * * * 0.00;
  10-19 12 * * * 0.00;
  20-29 12 * * * 0.00;
  30-39 12 * * * 0.00;
  40-49 12 * * * 0.00;
  50-59 12 * * * 0.00;
  0-9 13 * * * 0.00;
  10-19 13 * * * 0.00;
  20-29 13 * * * 0.00;
  30-39 13 * * * 0.00;
  40-49 13 * * * 0.00;
  50-59 13 * * * 0.00;
  0-9 14 * * * 0.00;
  10-19 14 * * * 0.00;
  20-29 14 * * * 0.00;
  30-39 14 * * * 0.00;
  40-49 14 * * * 0.00;
  50-59 14 * * * 0.00;
  0-9 15 * * * 0.00;
  10-19 15 * * * 0.00;
  20-29 15 * * * 0.00;
  30-39 15 * * * 0.00;
  40-49 15 * * * 0.00;
  50-59 15 * * * 0.00;
  0-9 16 * * * 0.00;
  10-19 16 * * * 0.00;
  20-29 16 * * * 0.00;
  30-39 16 * * * 0.00;
  40-49 16 * * * 0.00;
  50-59 16 * * * 0.00;
  0-9 17 * * * 0.00;
  10-19 17 * * * 0.00;
  20-29 17 * * * 0.00;
  30-39 17 * * * 0.00;
  40-49 17 * * * 0.00;
  50-59 17 * * * 0.00;
  0-9 18 * * * 0.00;
  10-19 18 * * * 0.00;
  20-29 18 * * * 0.00;
  30-39 18 * * * 0.00;
  40-49 18 * * * 0.00;
  50-59 18 * * * 0.00;
  0-9 19 * * * 0.00;
  10-19 19 * * * 0.00;
  20-29 19 * * * 0.00;
  30-39 19 * * * 0.00;
  40-49 19 * * * 0.00;
  50-59 19 * * * 0.00;
  0-9 20 * * * 0.00;
  10-19 20 * * * 0.00;
  20-29 20 * * * 0.00;
  30-39 20 * * * 0.00;
  40-49 20 * * * 0.00;
  50-59 20 * * * 0.00;
  0-9 21 * * * 0.00;
  10-19 21 * * * 0.00;
  20-29 21 * * * 0.00;
  30-39 21 * * * 0.00;
  40-49 21 * * * 0.00;
  50-59 21 * * * 0.00;
  0-9 22 * * * 0.00;
  10-19 22 * * * 0.00;
  20-29 22 * * * 0.00;
  30-39 22 * * * 0.00;
  40-49 22 * * * 0.00;
  50-59 22 * * * 0.00;
  0-9 23 * * * 0.00;
  10-19 23 * * * 0.00;
  20-29 23 * * * 0.00;
  30-39 23 * * * 0.00;
  40-49 23 * * * 0.00;
  50-59 23 * * * 0.00;
}

schedule water17 {
  0-9 0 * * * 0.00;
  10-19 0 * * * 0.00;
  20-29 0 * * * 0.00;
  30-39 0 * * * 0.00;
  40-49 0 * * * 0.00;
  50-59 0 * * * 0.00;
  0-9 1 * * * 0.00;
  10-19 1 * * * 0.00;
  20-29 1 * * * 0.00;
  30-39 1 * * * 0.00;
  40-49 1 * * * 0.00;
  50-59 1 * * * 0.00;
  0-9 2 * * * 0.00;
  10-19 2 * * * 0.00;
  20-29 2 * * * 0.00;
  30-39 2 * * * 0.00;
  40-49 2 * * * 0.00;
  50-59 2 * * * 0.10;
  0-9 3 * * * 0.82;
  10-19 3 * * * 0.00;
  20-29 3 * * * 0.00;
  30-39 3 * * * 0.00;
  40-49 3 * * * 0.00;
  50-59 3 * * * 0.00;
  0-9 4 * * * 0.00;
  10-19 4 * * * 0.00;
  20-29 4 * * * 0.00;
  30-39 4 * * * 0.00;
  40-49 4 * * * 0.00;
  50-59 4 * * * 0.00;
  0-9 5 * * * 0.00;
  10-19 5 * * * 0.00;
  20-29 5 * * * 0.00;
  30-39 5 * * * 0.00;
  40-49 5 * * * 0.74;
  50-59 5 * * * 0.01;
  0-9 6 * * * 0.00;
  10-19 6 * * * 0.00;
  20-29 6 * * * 0.00;
  30-39 6 * * * 1.00;
  40-49 6 * * * 0.00;
  50-59 6 * * * 0.00;
  0-9 7 * * * 0.00;
  10-19 7 * * * 0.00;
  20-29 7 * * * 0.00;
  30-39 7 * * * 0.00;
  40-49 7 * * * 0.00;
  50-59 7 * * * 0.27;
  0-9 8 * * * 0.00;
  10-19 8 * * * 0.00;
  20-29 8 * * * 0.00;
  30-39 8 * * * 0.00;
  40-49 8 * * * 0.00;
  50-59 8 * * * 0.00;
  0-9 9 * * * 0.00;
  10-19 9 * * * 0.00;
  20-29 9 * * * 1.27;
  30-39 9 * * * 0.00;
  40-49 9 * * * 0.00;
  50-59 9 * * * 0.00;
  0-9 10 * * * 0.00;
  10-19 10 * * * 0.00;
  20-29 10 * * * 0.00;
  30-39 10 * * * 0.00;
  40-49 10 * * * 0.00;
  50-59 10 * * * 0.00;
  0-9 11 * * * 0.00;
  10-19 11 * * * 0.00;
  20-29 11 * * * 0.00;
  30-39 11 * * * 0.00;
  40-49 11 * * * 0.00;
  50-59 11 * * * 0.00;
  0-9 12 * * * 0.00;
  10-19 12 * * * 0.00;
  20-29 12 * * * 0.00;
  30-39 12 * * * 0.00;
  40-49 12 * * * 0.00;
  50-59 12 * * * 0.00;
  0-9 13 * * * 0.00;
  10-19 13 * * * 0.00;
  20-29 13 * * * 0.00;
  30-39 13 * * * 0.00;
  40-49 13 * * * 0.00;
  50-59 13 * * * 0.98;
  0-9 14 * * * 0.00;
  10-19 14 * * * 0.00;
  20-29 14 * * * 0.00;
  30-39 14 * * * 0.00;
  40-49 14 * * * 0.00;
  50-59 14 * * * 0.00;
  0-9 15 * * * 0.00;
  10-19 15 * * * 0.00;
  20-29 15 * * * 0.00;
  30-39 15 * * * 0.00;
  40-49 15 * * * 0.00;
  50-59 15 * * * 0.00;
  0-9 16 * * * 0.00;
  10-19 16 * * * 0.00;
  20-29 16 * * * 0.00;
  30-39 16 * * * 0.00;
  40-49 16 * * * 1.61;
  50-59 16 * * * 0.00;
  0-9 17 * * * 0.00;
  10-19 17 * * * 0.00;
  20-29 17 * * * 0.00;
  30-39 17 * * * 0.00;
  40-49 17 * * * 0.00;
  50-59 17 * * * 0.00;
  0-9 18 * * * 0.00;
  10-19 18 * * * 0.00;
  20-29 18 * * * 0.00;
  30-39 18 * * * 0.00;
  40-49 18 * * * 0.00;
  50-59 18 * * * 0.00;
  0-9 19 * * * 0.00;
  10-19 19 * * * 0.00;
  20-29 19 * * * 0.00;
  30-39 19 * * * 0.00;
  40-49 19 * * * 0.00;
  50-59 19 * * * 0.00;
  0-9 20 * * * 0.00;
  10-19 20 * * * 0.00;
  20-29 20 * * * 0.00;
  30-39 20 * * * 0.00;
  40-49 20 * * * 0.00;
  50-59 20 * * * 0.00;
  0-9 21 * * * 0.00;
  10-19 21 * * * 0.00;
  20-29 21 * * * 0.00;
  30-39 21 * * * 0.00;
  40-49 21 * * * 0.00;
  50-59 21 * * * 0.00;
  0-9 22 * * * 0.00;
  10-19 22 * * * 0.00;
  20-29 22 * * * 0.00;
  30-39 22 * * * 0.00;
  40-49 22 * * * 0.00;
  50-59 22 * * * 0.00;
  0-9 23 * * * 0.00;
  10-19 23 * * * 0.00;
  20-29 23 * * * 0.00;
  30-39 23 * * * 0.00;
  40-49 23 * * * 0.00;
  50-59 23 * * * 0.00;
}

schedule water18 {
  0-9 0 * * * 0.00;
  10-19 0 * * * 0.00;
  20-29 0 * * * 0.00;
  30-39 0 * * * 0.00;
  40-49 0 * * * 0.00;
  50-59 0 * * * 0.00;
  0-9 1 * * * 0.00;
  10-19 1 * * * 0.00;
  20-29 1 * * * 0.00;
  30-39 1 * * * 0.00;
  40-49 1 * * * 0.00;
  50-59 1 * * * 0.00;
  0-9 2 * * * 0.00;
  10-19 2 * * * 0.00;
  20-29 2 * * * 0.00;
  30-39 2 * * * 0.00;
  40-49 2 * * * 0.00;
  50-59 2 * * * 0.77;
  0-9 3 * * * 0.00;
  10-19 3 * * * 0.00;
  20-29 3 * * * 0.00;
  30-39 3 * * * 0.00;
  40-49 3 * * * 0.00;
  50-59 3 * * * 0.00;
  0-9 4 * * * 0.00;
  10-19 4 * * * 0.00;
  20-29 4 * * * 0.00;
  30-39 4 * * * 0.00;
  40-49 4 * * * 0.00;
  50-59 4 * * * 0.00;
  0-9 5 * * * 0.00;
  10-19 5 * * * 0.00;
  20-29 5 * * * 0.00;
  30-39 5 * * * 0.00;
  40-49 5 * * * 0.00;
  50-59 5 * * * 1.05;
  0-9 6 * * * 0.00;
  10-19 6 * * * 0.00;
  20-29 6 * * * 0.00;
  30-39 6 * * * 0.00;
  40-49 6 * * * 0.00;
  50-59 6 * * * 0.00;
  0-9 7 * * * 2.29;
  10-19 7 * * * 0.00;
  20-29 7 * * * 0.00;
  30-39 7 * * * 0.00;
  40-49 7 * * * 0.00;
  50-59 7 * * * 0.00;
  0-9 8 * * * 0.00;
  10-19 8 * * * 0.00;
  20-29 8 * * * 0.00;
  30-39 8 * * * 0.00;
  40-49 8 * * * 0.00;
  50-59 8 * * * 0.00;
  0-9 9 * * * 0.00;
  10-19 9 * * * 0.00;
  20-29 9 * * * 0.00;
  30-39 9 * * * 0.00;
  40-49 9 * * * 0.00;
  50-59 9 * * * 0.00;
  0-9 10 * * * 0.00;
  10-19 10 * * * 0.00;
  20-29 10 * * * 0.00;
  30-39 10 * * * 0.00;
  40-49 10 * * * 0.00;
  50-59 10 * * * 0.00;
  0-9 11 * * * 0.00;
  10-19 11 * * * 0.00;
  20-29 11 * * * 0.00;
  30-39 11 * * * 0.00;
  40-49 11 * * * 0.00;
  50-59 11 * * * 0.00;
  0-9 12 * * * 0.00;
  10-19 12 * * * 0.00;
  20-29 12 * * * 0.00;
  30-39 12 * * * 0.00;
  40-49 12 * * * 0.00;
  50-59 12 * * * 0.00;
  0-9 13 * * * 0.00;
  10-19 13 * * * 0.00;
  20-29 13 * * * 0.00;
  30-39 13 * * * 0.00;
  40-49 13 * * * 0.00;
  50-59 13 * * * 0.00;
  0-9 14 * * * 0.00;
  10-19 14 * * * 0.00;
  20-29 14 * * * 0.00;
  30-39 14 * * * 0.00;
  40-49 14 * * * 0.00;
  50-59 14 * * * 0.00;
  0-9 15 * * * 0.00;
  10-19 15 * * * 0.00;
  20-29 15 * * * 0.75;
  30-39 15 * * * 0.00;
  40-49 15 * * * 0.00;
  50-59 15 * * * 0.00;
  0-9 16 * * * 0.00;
  10-19 16 * * * 0.00;
  20-29 16 * * * 0.00;
...